version 3
run Default-0-20260130-05:00:31-1015
attr configname Default
attr datetime 20260130-05:00:31
attr datetimef 20260130-050031
attr experiment Default
attr inifile omnetpp.ini
attr iterationvars ""
attr iterationvarsd ""
attr iterationvarsf ""
attr measurement ""
attr network RSUExampleScenario
attr processid 1015
attr repetition 0
attr replication #0
attr resultdir results
attr runnumber 0
attr seedset 0
config image-path ../../../inet/images:../../../veins/images
config cmdenv-express-mode true
config cmdenv-autoflush true
config cmdenv-status-frequency 1s
config **.cmdenv-log-level info
config image-path ../../images
config network RSUExampleScenario
config debug-on-errors true
config print-undisposed true
config sim-time-limit 200s
config **.scalar-recording true
config **.vector-recording true
config *.playgroundSizeX 2500m
config *.playgroundSizeY 2500m
config *.playgroundSizeZ 50m
config *.annotations.draw true
config *.obstacles.obstacles "xmldoc(\"config.xml\", \"//AnalogueModel[@type='SimpleObstacleShadowing']/obstacles\")"
config *.manager.updateInterval 1s
config *.manager.host "\"localhost\""
config *.manager.port 9999
config *.manager.autoShutdown true
config *.manager.launchConfig "xmldoc(\"erlangen.launchd.xml\")"
config *.manager.trafficLightModuleType "\"org.car2x.veins.nodes.TrafficLight\""
config *.tls[*].mobility.x 0
config *.tls[*].mobility.y 0
config *.tls[*].mobility.z 3
config *.tls[*].applType "\"org.car2x.veins.modules.application.traci.TraCIDemoTrafficLightApp\""
config *.tls[*].logicType "\"org.car2x.veins.modules.world.traci.trafficLight.logics.TraCITrafficLightSimpleLogic\""
config *.rsu[0].mobility.x 2000
config *.rsu[0].mobility.y 2000
config *.rsu[0].mobility.z 3
config *.rsu[*].applType "\"TraCIDemoRSU11p\""
config *.rsu[*].appl.headerLength "80 bit"
config *.rsu[*].appl.sendBeacons false
config *.rsu[*].appl.dataOnSch false
config *.rsu[*].appl.beaconInterval 1s
config *.rsu[*].appl.beaconUserPriority 7
config *.rsu[*].appl.dataUserPriority 5
config *.rsu[*].nic.phy80211p.antennaOffsetZ "0 m"
config *.connectionManager.sendDirect true
config *.connectionManager.maxInterfDist 2600m
config *.connectionManager.drawMaxIntfDist false
config *.**.nic.mac1609_4.useServiceChannel false
config *.**.nic.mac1609_4.txPower 20mW
config *.**.nic.mac1609_4.bitrate 6Mbps
config *.**.nic.phy80211p.minPowerLevel -110dBm
config *.**.nic.phy80211p.useNoiseFloor true
config *.**.nic.phy80211p.noiseFloor -98dBm
config *.**.nic.phy80211p.decider "xmldoc(\"config.xml\")"
config *.**.nic.phy80211p.analogueModels "xmldoc(\"config.xml\")"
config *.**.nic.phy80211p.usePropagationDelay true
config *.**.nic.phy80211p.antenna "xmldoc(\"antenna.xml\", \"/root/Antenna[@id='monopole']\")"
config *.node[*].nic.phy80211p.antennaOffsetY "0 m"
config *.node[*].nic.phy80211p.antennaOffsetZ "1.895 m"
config *.node[*].applType "\"TraCIDemo11p\""
config *.node[*].appl.headerLength "80 bit"
config *.node[*].appl.sendBeacons false
config *.node[*].appl.dataOnSch false
config *.node[*].appl.beaconInterval 1s
config *.node[*].veinsmobility.x 0
config *.node[*].veinsmobility.y 0
config *.node[*].veinsmobility.z 0
config *.node[*].veinsmobility.setHostSpeed false
config *.node[*0].veinsmobility.accidentCount 1
config *.node[*0].veinsmobility.accidentStart 73s
config *.node[*0].veinsmobility.accidentDuration 50s

vector 0 RSUExampleScenario.node[0].veinsmobility posx ETV
vector 1 RSUExampleScenario.node[0].veinsmobility posy ETV
vector 2 RSUExampleScenario.node[0].veinsmobility speed ETV
vector 3 RSUExampleScenario.node[0].veinsmobility acceleration ETV
vector 4 RSUExampleScenario.node[0].veinsmobility co2emission ETV
vector 5 RSUExampleScenario.node[1].veinsmobility posx ETV
vector 6 RSUExampleScenario.node[1].veinsmobility posy ETV
vector 7 RSUExampleScenario.node[1].veinsmobility speed ETV
vector 8 RSUExampleScenario.node[1].veinsmobility acceleration ETV
vector 9 RSUExampleScenario.node[1].veinsmobility co2emission ETV
vector 10 RSUExampleScenario.node[2].veinsmobility posx ETV
vector 11 RSUExampleScenario.node[2].veinsmobility posy ETV
vector 12 RSUExampleScenario.node[2].veinsmobility speed ETV
vector 13 RSUExampleScenario.node[2].veinsmobility acceleration ETV
vector 14 RSUExampleScenario.node[2].veinsmobility co2emission ETV
vector 15 RSUExampleScenario.node[3].veinsmobility posx ETV
vector 16 RSUExampleScenario.node[3].veinsmobility posy ETV
vector 17 RSUExampleScenario.node[3].veinsmobility speed ETV
vector 18 RSUExampleScenario.node[3].veinsmobility acceleration ETV
vector 19 RSUExampleScenario.node[3].veinsmobility co2emission ETV
vector 20 RSUExampleScenario.node[4].veinsmobility posx ETV
vector 21 RSUExampleScenario.node[4].veinsmobility posy ETV
vector 22 RSUExampleScenario.node[4].veinsmobility speed ETV
vector 23 RSUExampleScenario.node[4].veinsmobility acceleration ETV
vector 24 RSUExampleScenario.node[4].veinsmobility co2emission ETV
vector 25 RSUExampleScenario.node[5].veinsmobility posx ETV
vector 26 RSUExampleScenario.node[5].veinsmobility posy ETV
vector 27 RSUExampleScenario.node[5].veinsmobility speed ETV
vector 28 RSUExampleScenario.node[5].veinsmobility acceleration ETV
vector 29 RSUExampleScenario.node[5].veinsmobility co2emission ETV
vector 30 RSUExampleScenario.node[6].veinsmobility posx ETV
vector 31 RSUExampleScenario.node[6].veinsmobility posy ETV
vector 32 RSUExampleScenario.node[6].veinsmobility speed ETV
vector 33 RSUExampleScenario.node[6].veinsmobility acceleration ETV
vector 34 RSUExampleScenario.node[6].veinsmobility co2emission ETV
vector 35 RSUExampleScenario.node[7].veinsmobility posx ETV
vector 36 RSUExampleScenario.node[7].veinsmobility posy ETV
vector 37 RSUExampleScenario.node[7].veinsmobility speed ETV
vector 38 RSUExampleScenario.node[7].veinsmobility acceleration ETV
vector 39 RSUExampleScenario.node[7].veinsmobility co2emission ETV
vector 40 RSUExampleScenario.node[8].veinsmobility posx ETV
vector 41 RSUExampleScenario.node[8].veinsmobility posy ETV
vector 42 RSUExampleScenario.node[8].veinsmobility speed ETV
vector 43 RSUExampleScenario.node[8].veinsmobility acceleration ETV
vector 44 RSUExampleScenario.node[8].veinsmobility co2emission ETV
vector 45 RSUExampleScenario.node[9].veinsmobility posx ETV
vector 46 RSUExampleScenario.node[9].veinsmobility posy ETV
vector 47 RSUExampleScenario.node[9].veinsmobility speed ETV
vector 48 RSUExampleScenario.node[9].veinsmobility acceleration ETV
vector 49 RSUExampleScenario.node[9].veinsmobility co2emission ETV
vector 50 RSUExampleScenario.node[10].veinsmobility posx ETV
vector 51 RSUExampleScenario.node[10].veinsmobility posy ETV
vector 52 RSUExampleScenario.node[10].veinsmobility speed ETV
vector 53 RSUExampleScenario.node[10].veinsmobility acceleration ETV
vector 54 RSUExampleScenario.node[10].veinsmobility co2emission ETV
vector 55 RSUExampleScenario.node[11].veinsmobility posx ETV
vector 56 RSUExampleScenario.node[11].veinsmobility posy ETV
vector 57 RSUExampleScenario.node[11].veinsmobility speed ETV
vector 58 RSUExampleScenario.node[11].veinsmobility acceleration ETV
vector 59 RSUExampleScenario.node[11].veinsmobility co2emission ETV
vector 60 RSUExampleScenario.node[12].veinsmobility posx ETV
vector 61 RSUExampleScenario.node[12].veinsmobility posy ETV
vector 62 RSUExampleScenario.node[12].veinsmobility speed ETV
vector 63 RSUExampleScenario.node[12].veinsmobility acceleration ETV
vector 64 RSUExampleScenario.node[12].veinsmobility co2emission ETV
vector 65 RSUExampleScenario.node[13].veinsmobility posx ETV
vector 66 RSUExampleScenario.node[13].veinsmobility posy ETV
vector 67 RSUExampleScenario.node[13].veinsmobility speed ETV
vector 68 RSUExampleScenario.node[13].veinsmobility acceleration ETV
vector 69 RSUExampleScenario.node[13].veinsmobility co2emission ETV
vector 70 RSUExampleScenario.node[14].veinsmobility posx ETV
vector 71 RSUExampleScenario.node[14].veinsmobility posy ETV
vector 72 RSUExampleScenario.node[14].veinsmobility speed ETV
vector 73 RSUExampleScenario.node[14].veinsmobility acceleration ETV
vector 74 RSUExampleScenario.node[14].veinsmobility co2emission ETV
vector 75 RSUExampleScenario.node[15].veinsmobility posx ETV
vector 76 RSUExampleScenario.node[15].veinsmobility posy ETV
vector 77 RSUExampleScenario.node[15].veinsmobility speed ETV
vector 78 RSUExampleScenario.node[15].veinsmobility acceleration ETV
vector 79 RSUExampleScenario.node[15].veinsmobility co2emission ETV
vector 80 RSUExampleScenario.node[16].veinsmobility posx ETV
vector 81 RSUExampleScenario.node[16].veinsmobility posy ETV
vector 82 RSUExampleScenario.node[16].veinsmobility speed ETV
vector 83 RSUExampleScenario.node[16].veinsmobility acceleration ETV
vector 84 RSUExampleScenario.node[16].veinsmobility co2emission ETV
vector 85 RSUExampleScenario.node[17].veinsmobility posx ETV
vector 86 RSUExampleScenario.node[17].veinsmobility posy ETV
vector 87 RSUExampleScenario.node[17].veinsmobility speed ETV
vector 88 RSUExampleScenario.node[17].veinsmobility acceleration ETV
vector 89 RSUExampleScenario.node[17].veinsmobility co2emission ETV
vector 90 RSUExampleScenario.node[18].veinsmobility posx ETV
vector 91 RSUExampleScenario.node[18].veinsmobility posy ETV
vector 92 RSUExampleScenario.node[18].veinsmobility speed ETV
vector 93 RSUExampleScenario.node[18].veinsmobility acceleration ETV
vector 94 RSUExampleScenario.node[18].veinsmobility co2emission ETV
vector 95 RSUExampleScenario.node[19].veinsmobility posx ETV
vector 96 RSUExampleScenario.node[19].veinsmobility posy ETV
vector 97 RSUExampleScenario.node[19].veinsmobility speed ETV
vector 98 RSUExampleScenario.node[19].veinsmobility acceleration ETV
vector 99 RSUExampleScenario.node[19].veinsmobility co2emission ETV
vector 100 RSUExampleScenario.node[20].veinsmobility posx ETV
vector 101 RSUExampleScenario.node[20].veinsmobility posy ETV
vector 102 RSUExampleScenario.node[20].veinsmobility speed ETV
vector 103 RSUExampleScenario.node[20].veinsmobility acceleration ETV
vector 104 RSUExampleScenario.node[20].veinsmobility co2emission ETV
vector 105 RSUExampleScenario.node[21].veinsmobility posx ETV
vector 106 RSUExampleScenario.node[21].veinsmobility posy ETV
vector 107 RSUExampleScenario.node[21].veinsmobility speed ETV
vector 108 RSUExampleScenario.node[21].veinsmobility acceleration ETV
vector 109 RSUExampleScenario.node[21].veinsmobility co2emission ETV
vector 110 RSUExampleScenario.node[22].veinsmobility posx ETV
vector 111 RSUExampleScenario.node[22].veinsmobility posy ETV
vector 112 RSUExampleScenario.node[22].veinsmobility speed ETV
vector 113 RSUExampleScenario.node[22].veinsmobility acceleration ETV
vector 114 RSUExampleScenario.node[22].veinsmobility co2emission ETV
vector 115 RSUExampleScenario.node[23].veinsmobility posx ETV
vector 116 RSUExampleScenario.node[23].veinsmobility posy ETV
vector 117 RSUExampleScenario.node[23].veinsmobility speed ETV
vector 118 RSUExampleScenario.node[23].veinsmobility acceleration ETV
vector 119 RSUExampleScenario.node[23].veinsmobility co2emission ETV
vector 120 RSUExampleScenario.node[24].veinsmobility posx ETV
vector 121 RSUExampleScenario.node[24].veinsmobility posy ETV
vector 122 RSUExampleScenario.node[24].veinsmobility speed ETV
vector 123 RSUExampleScenario.node[24].veinsmobility acceleration ETV
vector 124 RSUExampleScenario.node[24].veinsmobility co2emission ETV
vector 125 RSUExampleScenario.node[25].veinsmobility posx ETV
vector 126 RSUExampleScenario.node[25].veinsmobility posy ETV
vector 127 RSUExampleScenario.node[25].veinsmobility speed ETV
vector 128 RSUExampleScenario.node[25].veinsmobility acceleration ETV
vector 129 RSUExampleScenario.node[25].veinsmobility co2emission ETV
vector 130 RSUExampleScenario.node[26].veinsmobility posx ETV
vector 131 RSUExampleScenario.node[26].veinsmobility posy ETV
vector 132 RSUExampleScenario.node[26].veinsmobility speed ETV
vector 133 RSUExampleScenario.node[26].veinsmobility acceleration ETV
vector 134 RSUExampleScenario.node[26].veinsmobility co2emission ETV
vector 135 RSUExampleScenario.node[27].veinsmobility posx ETV
vector 136 RSUExampleScenario.node[27].veinsmobility posy ETV
vector 137 RSUExampleScenario.node[27].veinsmobility speed ETV
vector 138 RSUExampleScenario.node[27].veinsmobility acceleration ETV
vector 139 RSUExampleScenario.node[27].veinsmobility co2emission ETV
vector 140 RSUExampleScenario.node[28].veinsmobility posx ETV
vector 141 RSUExampleScenario.node[28].veinsmobility posy ETV
vector 142 RSUExampleScenario.node[28].veinsmobility speed ETV
0	2	1	2414.8476884116
0	3	2	2411.8243290941
0	4	3	2407.1592244543
0	5	4	2402.288200066
0	6	5	2396.1394374635
0	7	6	2388.6993875942
0	8	7	2379.889221533
0	9	8	2370.1207192459
0	10	9	2360.3141803208
0	11	10	2350.5099475634
0	12	11	2341.0010868867
0	13	12	2334.5620136983
0	14	13	2337.6803779466
0	15	14	2348.3497968862
0	16	15	2358.6961674725
0	17	16	2371.6616533546
0	18	17	2385.4706804305
0	19	18	2399.3588350668
0	20	19	2412.4541998667
0	21	20	2421.4418196582
0	22	21	2428.417609864
0	23	22	2431.468930052
0	24	23	2433.1513403206
0	25	24	2435.1237040944
0	26	25	2437.2173147583
0	27	26	2438.6437980286
0	28	27	2439.5074353185
0	29	28	2440.517813261
0	30	29	2441.5286354903
0	31	30	2442.5392864447
0	32	31	2443.5505626462
0	33	32	2444.5611125134
0	34	33	2445.5724211388
0	35	34	2446.5834693939
0	36	35	2447.5934051003
0	37	36	2448.6036931522
0	38	37	2449.6148620235
0	39	38	2450.6248001783
0	40	39	2449.5880553933
0	41	40	2448.4757357414
0	42	41	2447.3635385588
0	43	42	2446.250303259
0	44	43	2445.1365203297
0	45	44	2444.0235521834
0	46	45	2442.9111769209
0	47	46	2441.7982721732
0	48	47	2440.6856421625
0	49	48	2439.7151308154
0	50	49	2438.7725309408
0	51	50	2437.9056889905
0	52	51	2432.8785054281
0	53	52	2422.5273191113
0	54	53	2409.439604845
0	55	54	2395.517893619
0	56	55	2381.592286239
0	57	56	2367.6659531716
0	58	57	2353.7601239877
0	59	58	2339.8337569573
0	60	59	2325.9069679289
0	61	60	2311.9542202253
0	62	61	2298.0325140053
0	63	62	2284.0857072632
0	64	63	2270.1754193477
0	65	64	2256.2378749268
0	66	65	2242.3725172955
0	67	66	2228.5623045168
0	68	67	2214.8068758136
0	69	68	2201.6159272967
0	70	69	2188.41049514
0	71	70	2175.4595331684
0	72	71	2163.4460695032
0	73	72	2152.2029822947
0	74	73	2144.5427125699
0	76	74	2140.7603855053
0	77	75	2140.3234504706
0	78	76	2140.3234504706
0	79	77	2140.3234504706
0	80	78	2140.3234504706
0	81	79	2140.3234504706
0	82	80	2140.3234504706
0	83	81	2140.3234504706
0	84	82	2140.3234504706
0	85	83	2140.3234504706
0	86	84	2140.3234504706
0	203	85	2140.3234504706
0	204	86	2140.3234504706
1	2	1	1578.4613427464
1	3	2	1579.5715045081
1	4	3	1581.5561876604
1	5	4	1586.4898643075
1	6	5	1592.7177137369
1	7	6	1600.2534592729
1	8	7	1609.1769437566
1	9	8	1619.0710908128
1	10	9	1629.0037637418
1	11	10	1638.9341008412
1	12	11	1649.1129276818
1	13	12	1661.0453354148
1	14	13	1673.5713017788
1	15	14	1682.4825292248
1	16	15	1691.8131453674
1	17	16	1695.5671389326
1	18	17	1697.3762977775
1	19	18	1698.7149431584
1	20	19	1699.9531973498
1	21	20	1700.8030368192
1	22	21	1701.4822415169
1	23	22	1709.488976148
1	24	23	1720.5600911779
1	25	24	1733.5392477075
1	26	25	1747.3162704222
1	27	26	1761.1584832035
1	28	27	1775.0702432813
1	29	28	1788.9649324082
1	30	29	1802.8657313576
1	31	30	1816.7641749373
1	32	31	1830.6712168986
1	33	32	1844.5682703312
1	34	33	1858.4757581847
1	35	34	1872.3796654344
1	36	35	1886.2682729438
1	37	36	1900.1617258992
1	38	37	1914.0672918586
1	39	38	1927.95593304
1	40	39	1941.8192613758
1	41	40	1955.7024557721
1	42	41	1969.5841215905
1	43	42	1983.4787444612
1	44	43	1997.3802024601
1	45	44	2011.2714909082
1	46	45	2025.1553793969
1	47	46	2039.0458765477
1	48	47	2052.9329446238
1	49	48	2066.8462265795
1	50	49	2080.7728807703
1	51	50	2094.6498483503
1	52	51	2107.3969092406
1	53	52	2116.410831539
1	54	53	2120.9360540062
1	55	54	2120.5048353085
1	56	55	2120.0344859883
1	57	56	2119.5641121576
1	58	57	2119.0944308629
1	59	58	2118.6240558857
1	60	59	2118.1536666537
1	61	60	2117.6824006466
1	62	61	2117.2121830918
1	63	62	2116.7411177447
1	64	63	2116.2712858524
1	65	64	2115.8005333487
1	66	65	2114.7955725584
1	67	66	2112.8371776454
1	68	67	2110.6451732265
1	69	68	2106.1714176713
1	70	69	2101.6927499389
1	71	70	2096.6090699211
1	72	71	2089.5369335469
1	73	72	2082.9183056299
1	74	73	2078.4088257942
1	76	74	2076.1822295729
1	77	75	2075.9250128167
1	78	76	2075.9250128167
1	79	77	2075.9250128167
1	80	78	2075.9250128167
1	81	79	2075.9250128167
1	82	80	2075.9250128167
1	83	81	2075.9250128167
1	84	82	2075.9250128167
1	85	83	2075.9250128167
1	86	84	2075.9250128167
1	203	85	2075.9250128167
1	204	86	2075.9250128167
2	3	2	4.1061966058897
2	4	3	6.0195495591482
2	5	4	7.7148368984793
2	6	5	9.5879868385225
2	7	6	11.391389363371
2	8	7	13.513839789145
2	9	8	13.99235115225
2	10	9	13.890224446259
2	11	10	13.976677174468
2	12	11	13.994826577434
2	13	12	13.923680325528
2	14	13	13.923542996629
2	15	14	13.91007151508
2	16	15	13.964598868005
2	17	16	13.995233640105
2	18	17	13.952304350403
2	19	18	13.956911946491
2	20	19	11.503494614513
2	21	20	7.0034946145128
2	22	21	7.8970062485022
2	23	22	10.10483181514
2	24	23	11.990706169653
2	25	24	13.981089308816
2	26	25	13.965594365916
2	27	26	13.989059597438
2	28	27	13.956378436291
2	29	28	13.910982951869
2	30	29	13.88918493646
2	31	30	13.908189346099
2	32	31	13.983992603337
2	33	32	13.971500478752
2	34	33	13.873081948087
2	35	34	13.985133641064
2	36	35	13.886848415199
2	37	36	13.876205747321
2	38	37	13.967912819823
2	39	38	13.871047234884
2	40	39	13.89239756926
2	41	40	13.872267716837
2	42	41	13.999815066161
2	43	42	13.964707984752
2	44	43	13.906584702837
2	45	44	13.922364303169
2	46	45	13.929034490574
2	47	46	13.93922677479
2	48	47	13.924399639922
2	49	48	13.96850544848
2	50	49	13.986686690277
2	51	50	13.935194088209
2	52	51	13.930097484484
2	53	52	13.948393711536
2	54	53	13.882971800906
2	55	54	13.87138918183
2	56	55	13.933780807857
2	57	56	13.942265776542
2	58	57	13.95140511482
2	59	58	13.886548467774
2	60	59	13.920721456567
2	61	60	13.906796863726
2	62	61	13.917803910668
2	63	62	13.924582225601
2	64	63	13.959688465288
2	65	64	13.957318032989
2	66	65	13.940553226951
2	67	66	13.879855337965
2	68	67	13.977758804618
2	69	68	13.914176650653
2	70	69	13.928041475909
2	71	70	13.977535404016
2	72	71	13.928572678084
2	73	72	11.364046791626
2	74	73	6.8640467916256
2	76	74	2.3640467916256
2	77	75	0
2	78	76	0
2	79	77	0
2	80	78	0
2	81	79	0
2	82	80	0
2	83	81	0
2	84	82	0
2	85	83	0
2	86	84	0
2	203	85	0
2	204	86	0
3	4	3	1.9133529532584
3	5	4	1.6952873393311
3	6	5	1.8731499400432
3	7	6	1.8034025248489
3	8	7	2.1224504257739
3	9	8	0.47851136310433
3	10	9	-0.1021267059911
3	11	10	0.086452728209551
3	12	11	0.018149402965792
3	13	12	-0.071146251906175
3	14	13	-0.0001373288989992
3	15	14	-0.013471481548622
3	16	15	0.054527352924923
3	17	16	0.03063477210002
3	18	17	-0.04292928970186
3	19	18	0.0046075960877356
3	20	19	-2.4534173319781
3	21	20	-4.5
3	22	21	0.8935116339894
3	23	22	2.2078255666373
3	24	23	1.8858743545134
3	25	24	1.9903831391631
3	26	25	-0.01549494290026
3	27	26	0.023465231521987
3	28	27	-0.032681161146611
3	29	28	-0.045395484422334
3	30	29	-0.021798015409148
3	31	30	0.019004409639164
3	32	31	0.075803257238585
3	33	32	-0.012492124584968
3	34	33	-0.098418530665803
3	35	34	0.11205169297755
3	36	35	-0.098285225864965
3	37	36	-0.01064266787842
3	38	37	0.091707072502468
3	39	38	-0.096865584938786
3	40	39	0.021350334375166
3	41	40	-0.020129852422979
3	42	41	0.12754734932445
3	43	42	-0.035107081409079
3	44	43	-0.058123281914741
3	45	44	0.015779600332026
3	46	45	0.0066701874043797
3	47	46	0.010192284216172
3	48	47	-0.014827134867664
3	49	48	0.044105808557942
3	50	49	0.018181241797283
3	51	50	-0.051492602068466
3	52	51	-0.0050966037251055
3	53	52	0.018296227052343
3	54	53	-0.065421910630539
3	55	54	-0.011582619075197
3	56	55	0.062391626026946
3	57	56	0.0084849686850799
3	58	57	0.0091393382777465
3	59	58	-0.064856647045817
3	60	59	0.034172988792415
3	61	60	-0.013924592840485
3	62	61	0.011007046941668
3	63	62	0.0067783149331806
3	64	63	0.035106239686721
3	65	64	-0.0023704322986315
3	66	65	-0.016764806038699
3	67	66	-0.060697888985743
3	68	67	0.097903466653079
3	69	68	-0.063582153965253
3	70	69	0.013864825256169
3	71	70	0.049493928106967
3	72	71	-0.048962725931778
3	73	72	-2.5645258864584
3	74	73	-4.5
3	76	74	-4.5
3	77	75	-2.3640467916256
3	78	76	0
3	79	77	0
3	80	78	0
3	81	79	0
3	82	80	0
3	83	81	0
3	84	82	0
3	85	83	0
3	86	84	0
3	203	85	0
3	204	86	0
4	4	3	4.1962556146115
4	5	4	4.6765885426193
4	6	5	5.9822455727343
4	7	6	6.7469998477461
4	8	7	8.9023657158011
4	9	8	3.651678681686
4	10	9	1.6857621818206
4	11	10	2.3276633668785
4	12	11	2.0995306276608
4	13	12	1.7923040941768
4	14	13	2.0305681317735
4	15	14	1.9844951865828
4	16	15	2.2187318873595
4	17	16	2.1416854339172
4	18	17	1.8896148890835
4	19	18	2.0499339673421
4	20	19	0.973
4	21	20	0.973
4	22	21	3.236958348016
4	23	22	7.0694109561587
4	24	23	7.2974163894139
4	25	24	8.7433911631671
4	26	25	1.9831721788576
4	27	26	2.116835898497
4	28	27	1.9244585801898
4	29	28	1.8775583559564
4	30	29	1.9545657515643
4	31	30	2.0931646705581
4	32	31	2.2926746988581
4	33	32	1.993865292131
4	34	33	1.6968396252803
4	35	34	2.4149847823944
4	36	35	1.6983583398882
4	37	36	1.9906198998388
4	38	37	2.3442713071536
4	39	38	1.7018725964397
4	40	39	2.0993392475273
4	41	40	1.9585122345881
4	42	41	2.4691677522194
4	43	42	1.9170802753567
4	44	43	1.8345014514108
4	45	44	2.0838538984303
4	46	45	2.0539801513469
4	47	46	2.0668686152862
4	48	47	1.9813596940184
4	49	48	2.1840996762636
4	50	49	2.0987681125428
4	51	50	1.8592856847688
4	52	51	2.0145873760113
4	53	52	2.0950692067684
4	54	53	1.8080099866508
4	55	54	1.9870007069688
4	56	55	2.2415869227426
4	57	56	2.0614496349521
4	58	57	2.0646020593826
4	59	58	1.8102089718445
4	60	59	2.1453880261281
4	61	60	1.9826536733129
4	62	61	2.0673636130683
4	63	62	2.0538817544551
4	64	63	2.1528270365066
4	65	64	2.0265038417738
4	66	65	1.9764402783138
4	67	66	1.823544423566
4	68	67	2.3663700564531
4	69	68	1.816863137639
4	70	69	2.0780272006119
4	71	70	2.2032702170206
4	72	71	1.8671845150559
4	73	72	0.973
4	74	73	0.973
4	76	74	0.973
4	77	75	0.973
4	78	76	0.973
4	79	77	0.973
4	80	78	0.973
4	81	79	0.973
4	82	80	0.973
4	83	81	0.973
4	84	82	0.973
4	85	83	0.973
4	86	84	0.973
4	203	85	0.973
4	204	86	0.973
5	5	4	2414.8767583254
5	6	5	2411.8725636174
5	7	6	2407.2970525089
5	8	7	2402.4626210862
5	9	8	2396.3056860371
5	10	9	2388.8743536096
5	11	10	2380.097228827
5	12	11	2370.3507264333
5	13	12	2360.5878487076
5	14	13	2350.7849318213
5	15	14	2341.2418729237
5	16	15	2334.6305580324
5	17	16	2337.3467480277
5	18	17	2348.0519014368
5	19	18	2358.3998493504
5	20	19	2371.2788021446
5	21	20	2385.0887639745
5	22	21	2398.4985461925
5	23	22	2411.2485283293
5	24	23	2420.6905829484
5	25	24	2427.6440450998
5	26	25	2431.3031180431
5	27	26	2432.9057471878
5	28	27	2434.8184996871
5	29	28	2436.9106889558
5	30	29	2438.5031214217
5	31	30	2439.359314087
5	32	31	2440.3695716034
5	33	32	2441.3815056744
5	34	33	2442.392207776
5	35	34	2443.4019859718
5	36	35	2444.4122552489
5	37	36	2445.4251439738
5	38	37	2446.4367595227
5	39	38	2447.4467230743
5	40	39	2448.4574488286
5	41	40	2449.467800329
5	42	41	2450.4780716181
5	43	42	2449.7461704329
5	44	43	2448.6331060936
5	45	44	2447.5209445587
5	46	45	2446.407523851
5	47	46	2445.2946584851
5	48	47	2444.1824360332
5	49	48	2443.0706190476
5	50	49	2441.9568028547
5	51	50	2440.8451110823
5	52	51	2439.8503503047
5	53	52	2438.9091742415
5	54	53	2438.2310626655
5	55	54	2433.9050446447
5	56	55	2424.21615465
5	57	56	2411.3460908785
5	58	57	2397.4706148925
5	59	58	2383.5587488873
5	60	59	2369.633660475
5	61	60	2355.7048479554
5	62	61	2341.7904321874
5	63	62	2327.8638711022
5	64	63	2313.9188814831
5	65	64	2299.9979078089
5	66	65	2286.0826278217
5	67	66	2272.1469357561
5	68	67	2258.2076214411
5	69	68	2244.3155730069
5	70	69	2230.5273849192
5	71	70	2216.7446519198
5	72	71	2203.5167182724
5	73	72	2190.3178840362
5	74	73	2177.2322881214
5	76	74	2166.0575198019
5	77	75	2157.6433227622
5	78	76	2151.7978679298
5	79	77	2148.12850579
5	80	78	2146.1504391922
5	81	79	2145.2176430746
5	82	80	2144.8457426265
5	83	81	2144.7095674569
5	84	82	2144.6606226763
5	85	83	2144.6429435182
5	86	84	2144.6366379777
5	203	85	2144.6343920679
5	204	86	2144.6335903119
6	5	4	1578.4506684253
6	6	5	1579.5537930429
6	7	6	1581.4165868293
6	8	7	1586.3131998433
6	9	8	1592.5493268352
6	10	9	1600.0762428036
6	11	10	1608.9662610246
6	12	11	1618.8381252186
6	13	12	1628.7265753681
6	14	13	1638.6555796713
6	15	14	1648.8046840783
6	16	15	1660.6325348346
6	17	16	1673.301875555
6	18	17	1682.2138796467
6	19	18	1691.5459182626
6	20	19	1695.5099147679
6	21	20	1697.3308411958
6	22	21	1698.6335971011
6	23	22	1699.8391930545
6	24	23	1700.7320023719
6	25	24	1701.2941834759
6	26	25	1708.3978488175
6	27	26	1718.9439634858
6	28	27	1731.5308475178
6	29	28	1745.2985167308
6	30	29	1759.1189484736
6	31	30	1773.033284259
6	32	31	1786.9263172904
6	33	32	1800.8424062571
6	34	33	1814.7415532097
6	35	34	1828.6279946407
6	36	35	1842.5211894047
6	37	36	1856.4504067414
6	38	37	1870.362115399
6	39	38	1884.2511058366
6	40	39	1898.150578063
6	41	40	1912.0449035605
6	42	41	1925.9381259941
6	43	42	1939.8457802581
6	44	43	1953.7382693188
6	45	44	1967.6194902081
6	46	45	1981.5164272105
6	47	46	1995.4064328251
6	48	47	2009.2884140396
6	49	48	2023.165334505
6	50	49	2037.0672076773
6	51	50	2050.942565321
6	52	51	2064.8483957723
6	53	52	2078.754013543
6	54	53	2092.6537938379
6	55	54	2105.6893007364
6	56	55	2115.3934075218
6	57	56	2120.5034639826
6	58	57	2120.5707901428
6	59	58	2120.100904949
6	60	59	2119.6305731572
6	61	60	2119.160115581
6	62	61	2118.6901442679
6	63	62	2118.2197627351
6	64	63	2117.748758764
6	65	64	2117.2785659507
6	66	65	2116.8085654471
6	67	66	2116.3378755087
6	68	67	2115.8670632252
6	69	68	2115.0711128758
6	70	69	2113.1158412341
6	71	70	2111.1613431666
6	72	71	2106.8160774671
6	73	72	2102.339647443
6	74	73	2097.6526627708
6	76	74	2091.0742531046
6	77	75	2086.1209481629
6	78	76	2082.6798211997
6	79	77	2080.5197256459
6	80	78	2079.3552690716
6	81	79	2078.806146726
6	82	80	2078.5872148043
6	83	81	2078.5070506316
6	84	82	2078.4782376122
6	85	83	2078.4678301709
6	86	84	2078.4641181994
6	203	85	2078.4627960678
6	204	86	2078.4623240866
7	6	5	4.0332649588119
7	7	6	5.8265110515686
7	8	7	7.7852127750962
7	9	8	9.5658873894228
7	10	9	11.450149483434
7	11	10	13.391487500134
7	12	11	13.949883621705
7	13	12	13.87602620427
7	14	13	13.885232782268
7	15	14	13.987373048679
7	16	15	13.890608048609
7	17	16	13.887004709987
7	18	17	13.926980708602
7	19	18	13.89086526999
7	20	19	13.965056618985
7	21	20	13.946692067499
7	22	21	13.097137451398
7	23	22	11.939132677032
7	24	23	7.4783001788439
7	25	24	7.8592269216425
7	26	25	9.5749213322898
7	27	26	11.610942506126
7	28	27	13.581243869506
7	29	28	13.973211987913
7	30	29	13.918392209036
7	31	30	13.928662607018
7	32	31	13.985277111761
7	33	32	13.95532245066
7	34	33	13.938708755139
7	35	34	13.908545650935
7	36	35	13.927478809105
7	37	36	13.897819017794
7	38	37	13.989504252097
7	39	38	13.94374062394
7	40	39	13.903882643976
7	41	40	13.969130632835
7	42	41	13.884234787642
7	43	42	13.881978327318
7	44	43	13.927070145076
7	45	44	13.922745489741
7	46	45	13.95273740395
7	47	46	13.968270483359
7	48	47	13.918685564972
7	49	48	13.921468284922
7	50	49	13.897015957548
7	51	50	13.964752228069
7	52	51	13.91147568828
7	53	52	13.974545761354
7	54	53	13.965476403411
7	55	54	13.989670229855
7	56	55	13.951804798429
7	57	56	13.892850009208
7	58	57	13.958218119799
7	59	58	13.933717581006
7	60	59	13.982012811573
7	61	60	13.954506225567
7	62	61	13.954468280503
7	63	62	13.914126337939
7	64	63	13.998578815588
7	65	64	13.932968401979
7	66	65	13.954534002345
7	67	66	13.998651232829
7	68	67	13.999179182528
7	69	68	13.886099785112
7	70	69	13.881868150404
7	71	70	13.887636745651
7	72	71	13.978686858166
7	73	72	13.970344127666
7	74	73	13.925369204739
7	76	74	11.503028205973
7	77	75	8.3084939661969
7	78	76	5.5757626568646
7	79	77	3.3211618849162
7	80	78	1.6266335353547
7	81	79	0.70715133051593
7	82	80	0.26232084274652
7	83	81	0.09568805664727
7	84	82	0.033835632228035
7	85	83	0.012538818862259
7	86	84	0.0044949869302171
7	203	85	0.0015515939487704
7	204	86	0.00056220080715219
8	7	6	1.7932460927567
8	8	7	1.9587017235276
8	9	8	1.7806746143266
8	10	9	1.8842620940111
8	11	10	1.9413380167005
8	12	11	0.5583961215709
8	13	12	-0.073857417434921
8	14	13	0.0092065779981212
8	15	14	0.10214026641101
8	16	15	-0.096765000070445
8	17	16	-0.0036033386224883
8	18	17	0.039975998615846
8	19	18	-0.036115438612178
8	20	19	0.074191348995083
8	21	20	-0.018364551486448
8	22	21	-0.84955461610103
8	23	22	-1.1580047743662
8	24	23	-4.4608324981877
8	25	24	0.38092674279862
8	26	25	1.7156944106473
8	27	26	2.0360211738362
8	28	27	1.9703013633797
8	29	28	0.39196811840698
8	30	29	-0.054819778876846
8	31	30	0.010270397982096
8	32	31	0.056614504742901
8	33	32	-0.029954661100637
8	34	33	-0.016613695521373
8	35	34	-0.030163104203529
8	36	35	0.018933158169965
8	37	36	-0.029659791311714
8	38	37	0.091685234303586
8	39	38	-0.045763628156855
8	40	39	-0.039857979963999
8	41	40	0.065247988859191
8	42	41	-0.08489584519295
8	43	42	-0.0022564603248618
8	44	43	0.045091817758511
8	45	44	-0.0043246553349299
8	46	45	0.029991914208512
8	47	46	0.015533079409506
8	48	47	-0.0495849183877
8	49	48	0.0027827199501917
8	50	49	-0.024452327373437
8	51	50	0.067736270520836
8	52	51	-0.053276539789513
8	53	52	0.063070073074195
8	54	53	-0.0090693579427903
8	55	54	0.024193826443517
8	56	55	-0.037865431425162
8	57	56	-0.058954789221753
8	58	57	0.065368110591081
8	59	58	-0.024500538792926
8	60	59	0.048295230567454
8	61	60	-0.027506586005911
8	62	61	-3.7945064249811e-05
8	63	62	-0.040341942564119
8	64	63	0.08445247764932
8	65	64	-0.065610413609539
8	66	65	0.021565600365866
8	67	66	0.044117230484263
8	68	67	0.0005279496987356
8	69	68	-0.11307939741528
8	70	69	-0.0042316347081215
8	71	70	0.0057685952470639
8	72	71	0.091050112515221
8	73	72	-0.0083427305007344
8	74	73	-0.044974922926631
8	76	74	-2.4223409987658
8	77	75	-3.1945342397763
8	78	76	-2.7327313093324
8	79	77	-2.2546007719484
8	80	78	-1.6945283495614
8	81	79	-0.91948220483881
8	82	80	-0.44483048776941
8	83	81	-0.16663278609925
8	84	82	-0.061852424419235
8	85	83	-0.021296813365776
8	86	84	-0.0080438319320418
8	203	85	-0.0029433929814467
8	204	86	-0.0009893931416182
9	7	6	3.9274001426868
9	8	7	5.2041356246368
9	9	8	5.7574507674447
9	10	9	7.0006276784153
9	11	10	8.2432295261252
9	12	11	3.9110016848773
9	13	12	1.7792042638201
9	14	13	2.0579365757541
9	15	14	2.3818636967155
9	16	15	1.7037407999188
9	17	16	2.0152488537881
9	18	17	2.1655550639215
9	19	18	1.906797412239
9	20	19	2.2849654495652
9	21	20	1.9716653983805
9	22	21	0.973
9	23	22	0.973
9	24	23	0.973
9	25	24	2.2554772362628
9	26	25	5.6120472675651
9	27	26	7.5119842129131
9	28	27	8.4455276517466
9	29	28	3.3560730035355
9	30	29	1.8466200733259
9	31	30	2.0660268329645
9	32	31	2.2281549844786
9	33	32	1.9335288120447
9	34	33	1.9767670407741
9	35	34	1.9283950769156
9	36	35	2.0949799016024
9	37	36	1.9290667558988
9	38	37	2.3468857079218
9	39	38	1.8793040227889
9	40	39	1.8954681876561
9	41	40	2.2553467174174
9	42	41	1.7429567241042
9	43	42	2.0192482635441
9	44	43	2.1827359052182
9	45	44	2.0164367628106
9	46	45	2.1348602115454
9	47	46	2.0878872407227
9	48	47	1.8642059318509
9	49	48	2.0401536442479
9	50	49	1.9464315106901
9	51	50	2.2632042711189
9	52	51	1.851180617826
9	53	52	2.2486511283506
9	54	53	2.0047870143605
9	55	54	2.1193583924862
9	56	55	1.9065956504161
9	57	56	1.8305118457369
9	58	57	2.2544630998412
9	59	58	1.9497933768092
9	60	59	2.199742909699
9	61	60	1.9416842431598
9	62	61	2.0340583936544
9	63	62	1.8947902862501
9	64	63	2.3236156337703
9	65	64	1.8116807487081
9	66	65	2.1067187558746
9	67	66	2.1875465210812
9	68	67	2.0405446651404
9	69	68	1.6487905152147
9	70	69	2.0126291187762
9	71	70	2.0466796925005
9	72	71	2.3433989621326
9	73	72	2.0077208397811
9	74	73	1.8802787050508
9	76	74	0.973
9	77	75	0.973
9	78	76	0.973
9	79	77	0.973
9	80	78	0.973
9	81	79	0.973
9	82	80	0.973
9	83	81	0.973
9	84	82	1.1111278658488
9	85	83	1.1105405169147
9	86	84	1.1102081243603
9	203	85	1.1100737482573
9	204	86	1.1100269865137
10	8	7	2414.8848622198
10	9	8	2412.0691307599
10	10	9	2407.3819784434
10	11	10	2402.4639103656
10	12	11	2396.2016479742
10	13	12	2388.5021761758
10	14	13	2379.5347220144
10	15	14	2369.7521497252
10	16	15	2359.9648396304
10	17	16	2350.1637192596
10	18	17	2340.717056727
10	19	18	2334.4889366638
10	20	19	2338.0188398167
10	21	20	2348.6970945761
10	22	21	2359.0578910074
10	23	22	2372.1753142256
10	24	23	2385.9847009928
10	25	24	2399.0560799135
10	26	25	2411.469456295
10	27	26	2420.8240344936
10	28	27	2428.2511095385
10	29	28	2431.5096723901
10	30	29	2433.2168502312
10	31	30	2435.2011956087
10	32	31	2437.29147981
10	33	32	2438.672857787
10	34	33	2439.5458305131
10	35	34	2440.5569901068
10	36	35	2441.5662171456
10	37	36	2442.5764760413
10	38	37	2443.5864360537
10	39	38	2444.5969193554
10	40	39	2445.6077267987
10	41	40	2446.6171177449
10	42	41	2447.6285385494
10	43	42	2448.6389437378
10	44	43	2449.6489775468
10	45	44	2450.659299592
10	46	45	2449.5461587089
10	47	46	2448.4337074455
10	48	47	2447.3207898499
10	49	48	2446.207873206
10	50	49	2445.0940501215
10	51	50	2443.9833638043
10	52	51	2442.8694501355
10	53	52	2441.7571938549
10	54	53	2440.6460889142
10	55	54	2439.6827321647
10	56	55	2438.7413750661
10	57	56	2437.8192072627
10	58	57	2432.6325302194
10	59	58	2422.106233715
10	60	59	2408.9688818519
10	61	60	2395.0345910933
10	62	61	2381.126587261
10	63	62	2367.2179763186
10	64	63	2353.2984252305
10	65	64	2339.3434596916
10	66	65	2325.3984135713
10	67	66	2311.4586331139
10	68	67	2297.5367558505
10	69	68	2283.6070172336
10	70	69	2269.6839314153
10	71	70	2255.7643697551
10	72	71	2241.8757564033
10	73	72	2228.0688688542
10	74	73	2214.3596332766
10	76	74	2201.1714023183
10	77	75	2187.9686336372
10	78	76	2175.8734212776
10	79	77	2166.9060475181
10	80	78	2160.0570473718
10	81	79	2155.1946690262
10	82	80	2152.0845165758
10	83	81	2150.3460835881
10	84	82	2149.5044575131
10	85	83	2149.1558657689
10	86	84	2149.0223896184
10	203	85	2148.9725696122
10	204	86	2148.9540163553
11	8	7	1578.4476927174
11	9	8	1579.4816146148
11	10	9	1581.3305685576
11	11	10	1586.311893981
11	12	11	1592.6547030602
11	13	12	1600.4532072712
11	14	13	1609.5360029312
11	15	14	1619.4444009606
11	16	15	1629.3575977338
11	17	16	1639.2847824143
11	18	17	1649.4765304932
11	19	18	1661.4854336744
11	20	19	1673.8446300924
11	21	20	1682.7957309801
11	22	21	1692.1393567109
11	23	22	1695.6439150097
11	24	23	1697.4374776948
11	25	24	1698.6863156371
11	26	25	1699.860083269
11	27	26	1700.7446211064
11	28	27	1701.4003788568
11	29	28	1709.757081449
11	30	29	1720.9911797
11	31	30	1734.0491812732
11	32	31	1747.8043141738
11	33	32	1761.6824669717
11	34	33	1775.5982529195
11	35	34	1789.5036912933
11	36	35	1803.3825532272
11	37	36	1817.2756052278
11	38	37	1831.1645469936
11	39	38	1845.0606850199
11	40	39	1858.9612806309
11	41	40	1872.8423966132
11	42	41	1886.7514271513
11	43	42	1900.646490965
11	44	43	1914.536447579
11	45	44	1928.4487420022
11	46	45	1942.3421864314
11	47	46	1956.2270235084
11	48	47	1970.117681019
11	49	48	1984.0083266487
11	50	49	1997.9102858361
11	51	50	2011.7730940934
11	52	51	2025.6761838896
11	53	52	2039.5585873295
11	54	53	2053.4266205495
11	55	54	2067.3249077424
11	56	55	2081.2332002614
11	57	56	2095.1082015075
11	58	57	2107.8060795395
11	59	58	2116.5990612879
11	60	59	2120.9591539605
11	61	60	2120.4885113519
11	62	61	2120.0187566066
11	63	62	2119.5489813555
11	64	63	2119.0788365919
11	65	64	2118.6074956749
11	66	65	2118.1364897946
11	67	66	2117.6656617671
11	68	67	2117.1954384353
11	69	68	2116.7249495788
11	70	69	2116.2546854271
11	71	70	2115.7845403058
11	72	71	2114.7251280239
11	73	72	2112.7672046544
11	74	73	2110.4934893819
11	76	74	2106.020655496
11	77	75	2101.5428910907
11	78	76	2096.8527193153
11	79	77	2091.5737679731
11	80	78	2087.5418697288
11	81	79	2084.6794643719
11	82	80	2082.8485667314
11	83	81	2081.8251786809
11	84	82	2081.3297266997
11	85	83	2081.1245162431
11	86	84	2081.0459409412
11	203	85	2081.0166126899
11	204	86	2081.0056906808
12	9	8	3.930963162637
12	10	9	5.9263112237273
12	11	10	7.8381960794392
12	12	11	9.790430662247
12	13	12	11.728100012452
12	14	13	13.629514704516
12	15	14	13.941568216505
12	16	15	13.881279769889
12	17	16	13.897868440901
12	18	17	13.925429278756
12	19	18	13.988464023101
12	20	19	13.968606978769
12	21	20	13.918509052745
12	22	21	13.924308654484
12	23	22	13.951645852409
12	24	23	13.87926841794
12	25	24	12.793519969494
12	26	25	11.84351296104
12	27	26	7.4038563960913
12	28	27	8.4727548549238
12	29	28	10.367830629347
12	30	29	12.18869854925
12	31	30	13.961659159465
12	32	31	13.954832898835
12	33	32	13.985199820679
12	34	33	13.894128147855
12	35	34	13.93747920732
12	36	35	13.922516686122
12	37	36	13.936551663636
12	38	37	13.899921349036
12	39	38	13.905686459227
12	40	39	13.974518650502
12	41	40	13.926188751743
12	42	41	13.91506882193
12	43	42	13.902084701743
12	44	43	13.906688486487
12	45	44	13.974945872892
12	46	45	13.897515056985
12	47	46	13.921723058985
12	48	47	13.971591069859
12	49	48	13.925448836959
12	50	49	13.871581884674
12	51	50	13.876423048137
12	52	51	13.873938687814
12	53	52	13.902598275633
12	54	53	13.87539361449
12	55	54	13.977128260287
12	56	55	13.895400740923
12	57	56	13.950985880545
12	58	57	13.943263569523
12	59	58	13.891897078918
12	60	59	13.874182712052
12	61	60	13.982985400616
12	62	61	13.927164004399
12	63	62	13.899862960158
12	64	63	13.960168966714
12	65	64	13.961850514959
12	66	65	13.962242161995
12	67	66	13.957377178506
12	68	67	13.932528918332
12	69	68	13.977439161665
12	70	69	13.873707558191
12	71	70	13.945779315263
12	72	71	13.942668949808
12	73	72	13.91575948562
12	74	73	13.907857767178
12	76	74	13.900433905981
12	77	75	13.923825558184
12	78	76	11.814122621662
12	79	77	9.337223026894
12	80	78	6.8732055613698
12	81	79	4.7416921212429
12	82	80	2.7530894052557
12	83	81	1.4852991123435
12	84	82	0.657674669026
12	85	83	0.25043175996506
12	86	84	0.09578595091226
12	203	85	0.036137165618741
12	204	86	0.013689494588939
13	10	9	1.9953480610903
13	11	10	1.9118848557118
13	12	11	1.9522345828079
13	13	12	1.9376693502045
13	14	13	1.9014146920643
13	15	14	0.31205351198868
13	16	15	-0.060288446615449
13	17	16	0.016588671011849
13	18	17	0.027560837855562
13	19	18	0.063034744344186
13	20	19	-0.019857044331729
13	21	20	-0.050097926023881
13	22	21	0.0057996017392714
13	23	22	0.027337197924499
13	24	23	-0.072377434468363
13	25	24	-1.0857484484466
13	26	25	-0.95000700845353
13	27	26	-4.439656564949
13	28	27	1.0688984588324
13	29	28	1.8950757744233
13	30	29	1.8208679199032
13	31	30	1.7729606102145
13	32	31	-0.0068262606300422
13	33	32	0.03036692184396
13	34	33	-0.091071672823745
13	35	34	0.043351059465204
13	36	35	-0.01496252119774
13	37	36	0.014034977513365
13	38	37	-0.036630314600188
13	39	38	0.0057651101914225
13	40	39	0.068832191275433
13	41	40	-0.048329898759256
13	42	41	-0.01111992981285
13	43	42	-0.012984120186884
13	44	43	0.0046037847432316
13	45	44	0.068257386405021
13	46	45	-0.077430815906265
13	47	46	0.02420800199965
13	48	47	0.049868010873906
13	49	48	-0.046142232900019
13	50	49	-0.053866952285171
13	51	50	0.0048411634634249
13	52	51	-0.0024843603232867
13	53	52	0.028659587819128
13	54	53	-0.027204661143477
13	55	54	0.10173464579741
13	56	55	-0.08172751936363
13	57	56	0.05558513962198
13	58	57	-0.007722311022226
13	59	58	-0.051366490605288
13	60	59	-0.017714366866276
13	61	60	0.10880268856417
13	62	61	-0.055821396217215
13	63	62	-0.027301044240593
13	64	63	0.06030600655591
13	65	64	0.0016815482452515
13	66	65	0.00039164703572148
13	67	66	-0.0048649834888046
13	68	67	-0.024848260174041
13	69	68	0.044910243332852
13	70	69	-0.10373160347343
13	71	70	0.072071757072118
13	72	71	-0.0031103654555054
13	73	72	-0.02690946418792
13	74	73	-0.0079017184418628
13	76	74	-0.0074238611967292
13	77	75	0.023391652202699
13	78	76	-2.1097029365225
13	79	77	-2.4768995947677
13	80	78	-2.4640174655242
13	81	79	-2.1315134401269
13	82	80	-1.9886027159872
13	83	81	-1.2677902929122
13	84	82	-0.8276244433175
13	85	83	-0.40724290906094
13	86	84	-0.1546458090528
13	203	85	-0.059648785293519
13	204	86	-0.022447671029802
14	10	9	4.2649508166984
14	11	10	5.1441608835298
14	12	11	6.2752675611406
14	13	12	7.3015557220543
14	14	13	8.2469806235914
14	15	14	3.0813423760871
14	16	15	1.825038103975
14	17	16	2.0839753981971
14	18	17	2.1237162576214
14	19	18	2.2501690272635
14	20	19	1.9687844028223
14	21	20	1.8624692368163
14	22	21	2.0505690853877
14	23	22	2.1258147014109
14	24	23	1.7844264067381
14	25	24	0.973
14	26	25	0.973
14	27	26	0.973
14	28	27	3.7575341079103
14	29	28	6.4482222684255
14	30	29	7.2140195323343
14	31	30	8.0005078452345
14	32	31	2.0112657729674
14	33	32	2.1396802881933
14	34	33	1.7230808185304
14	35	34	2.1780640158967
14	36	35	1.980720158986
14	37	36	2.0794954629949
14	38	37	1.9059152732614
14	39	38	2.0485298427513
14	40	39	2.2680539427787
14	41	40	1.8690933945628
14	42	41	1.9928741031296
14	43	42	1.9853406570184
14	44	43	2.0447410785649
14	45	44	2.2661688405632
14	46	45	1.7690384486571
14	47	46	2.1120645090544
14	48	47	2.2038504354464
14	49	48	1.8763684319447
14	50	49	1.8456610488087
14	51	50	2.0424227277346
14	52	51	2.0176736696174
14	53	52	2.1249196677245
14	54	53	1.9351566644326
14	55	54	2.3791959019776
14	56	55	1.7544739900146
14	57	56	2.2207177955444
14	58	57	2.007091813677
14	59	58	1.8558336695686
14	60	59	1.9667740746073
14	61	60	2.4037578966905
14	62	61	1.844036691971
14	63	62	1.9371616602798
14	64	63	2.2376623461065
14	65	64	2.0405988072341
14	66	65	2.0362986285583
14	67	66	2.0181188628954
14	68	67	1.9485115452067
14	69	68	2.1878187851485
14	70	69	1.6791237400594
14	71	70	2.2755265645048
14	72	71	2.0225291815531
14	73	72	1.9399893034582
14	74	73	2.0029455902709
14	76	74	2.0038046724737
14	77	75	2.1095517709643
14	78	76	0.973
14	79	77	0.973
14	80	78	0.973
14	81	79	0.973
14	82	80	0.973
14	83	81	0.973
14	84	82	0.973
14	85	83	0.973
14	86	84	0.973
14	203	85	1.111223776563
14	204	86	1.1105863228136
15	11	10	2414.8652957816
15	12	11	2411.9402292009
15	13	12	2407.1594214574
15	14	13	2402.0350675649
15	15	14	2395.5354035812
15	16	15	2387.5598131203
15	17	16	2378.2983909701
15	18	17	2368.4972038758
15	19	18	2358.719633554
15	20	19	2348.9248444787
15	21	20	2339.614370346
15	22	21	2334.1997176057
15	23	22	2339.4193692133
15	24	23	2350.023330241
15	25	24	2360.3662725991
15	26	25	2373.90233667
15	27	26	2387.7152259793
15	28	27	2400.5914429313
15	29	28	2412.9398871803
15	30	29	2421.7139854309
15	31	30	2429.0882121673
15	32	31	2431.6639768599
15	33	32	2433.4302155024
15	34	33	2435.4611475593
15	35	34	2437.5533698815
15	36	35	2438.7684759141
15	37	36	2439.671540139
15	38	37	2440.6813741141
15	39	38	2441.6917844916
15	40	39	2442.7022041357
15	41	40	2443.7124593587
15	42	41	2444.7229332504
15	43	42	2445.7337078364
15	44	43	2446.7459111849
15	45	44	2447.757486716
15	46	45	2448.7683903823
15	47	46	2449.7777371067
15	48	47	2450.5176811377
15	49	48	2449.4057673637
15	50	49	2448.2921364765
15	51	50	2447.1808208324
15	52	51	2446.0691226661
15	53	52	2444.9566500478
15	54	53	2443.8447802094
15	55	54	2442.7322517141
15	56	55	2441.6188783727
15	57	56	2440.5052318306
15	58	57	2439.5638147272
15	59	58	2438.6536858481
15	60	59	2437.4948448264
15	61	60	2431.5334230323
15	62	61	2420.4715117268
15	63	62	2407.1766999349
15	64	63	2393.2654671065
15	65	64	2379.3340416566
15	66	65	2365.4130733985
15	67	66	2351.4761689551
15	68	67	2337.5268439178
15	69	68	2323.6086323152
15	70	69	2309.6673963735
15	71	70	2295.7412469359
15	72	71	2281.8125583379
15	73	72	2267.8962458479
15	74	73	2253.9590490381
15	76	74	2240.1072131846
15	77	75	2226.3237636529
15	78	76	2212.6768161277
15	79	77	2199.4867584505
15	80	78	2186.5727009254
15	81	79	2175.9405364584
15	82	80	2168.1032066894
15	83	81	2162.2482135491
15	84	82	2158.1847134057
15	85	83	2155.6704383467
15	86	84	2154.307724961
15	203	85	2153.6793911499
15	204	86	2153.4185795318
16	11	10	1578.4548774119
16	12	11	1579.5289465943
16	13	12	1581.5559881236
16	14	13	1586.7462526578
16	15	14	1593.3295168448
16	16	15	1601.4076912217
16	17	16	1610.7882359559
16	18	17	1620.7154882178
16	19	18	1630.6188199436
16	20	19	1640.5395918936
16	21	20	1650.8881406859
16	22	21	1663.2272230769
16	23	22	1674.9756418047
16	24	23	1683.991763521
16	25	24	1693.3192880014
16	26	25	1695.9020503219
16	27	26	1697.6139621651
16	28	27	1698.8314944636
16	29	28	1699.9991223291
16	30	29	1700.8287719106
16	31	30	1701.8119543158
16	32	31	1710.77248332
16	33	32	1722.3952316754
16	34	33	1735.7597972872
16	35	34	1749.5276840087
16	36	35	1763.4065813264
16	37	36	1777.3270081691
16	38	37	1791.2142166747
16	39	38	1805.1093518483
16	40	39	1819.0046144547
16	41	40	1832.8976159496
16	42	41	1846.7936245678
16	43	42	1860.6937683271
16	44	43	1874.6135603888
16	45	44	1888.5247187214
16	46	45	1902.4266375881
16	47	46	1916.3071454344
16	48	47	1930.2163243052
16	49	48	1944.0944528161
16	50	49	1957.9940131316
16	51	50	1971.8646762054
16	52	51	1985.7401136523
16	53	52	1999.6252172682
16	54	53	2013.5027974071
16	55	54	2027.3885984384
16	56	55	2041.2849442475
16	57	56	2055.1846999563
16	58	57	2069.0818802128
16	59	58	2082.9846842764
16	60	59	2096.8273224197
16	61	60	2109.1980060218
16	62	61	2117.3297997853
16	63	62	2120.89862148
16	64	63	2120.4287576731
16	65	64	2119.9582118429
16	66	65	2119.4880192131
16	67	66	2119.0172883254
16	68	67	2118.5461379206
16	69	68	2118.0760383997
16	70	69	2117.6051612115
16	71	70	2117.1347935833
16	72	71	2116.6643401925
16	73	72	2116.1943048155
16	74	73	2115.723564052
16	76	74	2114.4743349263
16	77	75	2112.5197352488
16	78	76	2109.9227561578
16	79	77	2105.4493027339
16	80	78	2101.0694557112
16	81	79	2096.8922289629
16	82	80	2092.2785166753
16	83	81	2088.8317746604
16	84	82	2086.4396562865
16	85	83	2084.9595422586
16	86	84	2084.157334405
16	203	85	2083.7874442115
16	204	86	2083.6339085298
17	12	11	4.0076977833542
17	13	12	6.1677344774264
17	14	13	8.1549676716625
17	15	14	10.178332106699
17	16	15	12.262859039094
17	17	16	13.909239285488
17	18	17	13.972104677679
17	19	18	13.964405047395
17	20	19	13.904001857305
17	21	20	13.959390929798
17	22	21	13.878038117993
17	23	22	13.946876353603
17	24	23	13.944667257406
17	25	24	13.919344021892
17	26	25	13.927560248445
17	27	26	13.871213583788
17	28	27	12.691334807668
17	29	28	11.253789109264
17	30	29	6.8021452137647
17	31	30	8.5806848426844
17	32	31	10.511503565412
17	33	32	12.634297992723
17	34	33	13.965718502484
17	35	34	13.984844662666
17	36	35	13.956789441942
17	37	36	13.956542154332
17	38	37	13.917345386401
17	39	38	13.978046209081
17	40	39	13.982312166321
17	41	40	13.915473192113
17	42	41	13.879970237834
17	43	42	13.897895857247
17	44	43	13.999869057706
17	45	44	13.978634591533
17	46	45	13.942230677728
17	47	46	13.955766034983
17	48	47	13.950300372976
17	49	48	13.917481608128
17	50	49	13.942320762996
17	51	50	13.893100212866
17	52	51	13.91633811252
17	53	52	13.928179549885
17	54	53	13.968941585214
17	55	54	13.972987024514
17	56	55	13.957628285089
17	57	56	13.894821882746
17	58	57	13.9606701646
17	59	58	13.982247338414
17	60	59	13.974088552413
17	61	60	13.92781890474
17	62	61	13.871840020602
17	63	62	13.950818891171
17	64	63	13.896373478309
17	65	64	13.98123223257
17	66	65	13.934642261642
17	67	66	13.925234322341
17	68	67	13.991972472956
17	69	68	13.975208927125
17	70	69	13.946616810667
17	71	70	13.894927249895
17	72	71	13.997537077854
17	73	72	13.937148143742
17	74	73	13.949254455173
17	76	74	13.997392567724
17	77	75	13.892845066143
17	78	76	13.886739599619
17	79	77	13.915855845532
17	80	78	12.828711824371
17	81	79	10.389000575063
17	82	80	8.097997909287
17	83	81	5.794628169674
17	84	82	3.825260619805
17	85	83	2.2231521751121
17	86	84	1.1355791697037
17	203	85	0.47706516133759
17	204	86	0.18767643011928
18	13	12	2.1600366940722
18	14	13	1.9872331942362
18	15	14	2.0233644350362
18	16	15	2.0845269323955
18	17	16	1.6463802463939
18	18	17	0.062865392190869
18	19	18	-0.0076996302837493
18	20	19	-0.060403190089856
18	21	20	0.055389072492252
18	22	21	-0.081352811804972
18	23	22	0.068838235610166
18	24	23	-0.0022090961970385
18	25	24	-0.025323235513643
18	26	25	0.0082162265526122
18	27	26	-0.056346664656886
18	28	27	-1.1798787761197
18	29	28	-1.4375456984038
18	30	29	-4.4516438954996
18	31	30	1.7785396289197
18	32	31	1.9308187227277
18	33	32	2.1227944273106
18	34	33	1.3314205097611
18	35	34	0.01912616018206
18	36	35	-0.028055220723617
18	37	36	-0.00024728761054682
18	38	37	-0.039196767930406
18	39	38	0.060700822679792
18	40	39	0.0042659572395483
18	41	40	-0.06683897420764
18	42	41	-0.035502954279073
18	43	42	0.017925619413145
18	44	43	0.10197320045903
18	45	44	-0.021234466172753
18	46	45	-0.036403913805263
18	47	46	0.013535357255023
18	48	47	-0.0054656620067544
18	49	48	-0.032818764848635
18	50	49	0.024839154868388
18	51	50	-0.049220550130123
18	52	51	0.023237899653614
18	53	52	0.011841437364929
18	54	53	0.040762035329827
18	55	54	0.0040454392996612
18	56	55	-0.015358739425428
18	57	56	-0.062806402342394
18	58	57	0.065848281853832
18	59	58	0.021577173813712
18	60	59	-0.0081587860011503
18	61	60	-0.046269647672306
18	62	61	-0.055978884138167
18	63	62	0.078978870569262
18	64	63	-0.054445412862115
18	65	64	0.084858754260932
18	66	65	-0.046589970928617
18	67	66	-0.009407939300873
18	68	67	0.066738150615711
18	69	68	-0.0167635458312
18	70	69	-0.028592116457874
18	71	70	-0.051689560771921
18	72	71	0.10260982795851
18	73	72	-0.060388934111689
18	74	73	0.01210631143069
18	76	74	0.048138112551532
18	77	75	-0.10454750158125
18	78	76	-0.0061054665246054
18	79	77	0.02911624591332
18	80	78	-1.0871440211613
18	81	79	-2.4397112493077
18	82	80	-2.2910026657759
18	83	81	-2.303369739613
18	84	82	-1.969367549869
18	85	83	-1.6021084446929
18	86	84	-1.0875730054084
18	203	85	-0.65851400836608
18	204	86	-0.28938873121831
19	13	12	4.6399364442395
19	14	13	5.459099048015
19	15	14	6.6616810382017
19	16	15	8.0324172249288
19	17	16	7.5484463594625
19	18	17	2.247674957111
19	19	18	2.0092894812461
19	20	19	1.8266349661585
19	21	20	2.2210298717235
19	22	21	1.7543037306746
19	23	22	2.264789170887
19	24	23	2.0257606197441
19	25	24	1.9456524984792
19	26	25	2.059016748537
19	27	26	1.8373388380236
19	28	27	0.973
19	29	28	0.973
19	30	29	0.973
19	31	30	5.2602175796137
19	32	31	6.6156566027659
19	33	32	8.3694083781091
19	34	33	6.5165491496521
19	35	34	2.1017560319966
19	36	35	1.9400571066544
19	37	36	2.0335662245147
19	38	37	1.8989280401226
19	39	38	2.2410813776431
19	40	39	2.0514099723484
19	41	40	1.8060532207838
19	42	41	1.9078333116417
19	43	42	2.0884562634303
19	44	43	2.3828885778754
19	45	44	1.9651224554136
19	46	45	1.910615850939
19	47	46	2.0798426520326
19	48	47	2.015384407742
19	49	48	1.9203331804895
19	50	49	2.1164070517746
19	51	50	1.8631262853673
19	52	51	2.108230627045
19	53	52	2.0712498573739
19	54	53	2.1728920736305
19	55	54	2.049703034099
19	56	55	1.9828454643184
19	57	56	1.8177867315371
19	58	57	2.2563679833679
19	59	58	2.1097372464969
19	60	59	2.0087160084761
19	61	60	1.876156120652
19	62	61	1.8386234882413
19	63	62	2.2993516664104
19	64	63	1.8459222947006
19	65	64	2.3228538313892
19	66	65	1.8757004712267
19	67	66	1.999628549688
19	68	67	2.2630700095878
19	69	68	1.9798474403324
19	70	69	1.9372818212763
19	71	70	1.8550225742329
19	72	71	2.3847397299678
19	73	72	1.8295794064806
19	74	73	2.0743518631084
19	76	74	2.2009680002035
19	77	75	1.6778590032699
19	78	76	2.0068482443346
19	79	77	2.1278931133419
19	80	78	0.973
19	81	79	0.973
19	82	80	0.973
19	83	81	0.973
19	84	82	0.973
19	85	83	0.973
19	86	84	0.973
19	203	85	0.973
19	204	86	0.973
20	14	13	2414.9020294819
20	15	14	2411.9226306152
20	16	15	2407.1557433844
20	17	16	2402.1104710221
20	18	17	2395.7699587477
20	19	18	2388.0304223568
20	20	19	2379.4739705084
20	21	20	2370.8941181133
20	22	21	2362.3083183425
20	23	22	2353.7443024665
20	24	23	2345.1618354321
20	25	24	2337.3834647557
20	26	25	2333.9515173009
20	27	26	2339.5326987531
20	28	27	2348.8436283177
20	29	28	2357.9068652218
20	30	29	2368.8949020433
20	31	30	2380.9744917287
20	32	31	2393.0997437357
20	33	32	2405.2300000987
20	34	33	2416.5389993605
20	35	34	2423.9648748492
20	36	35	2430.56996479
20	37	36	2432.1002312365
20	38	37	2433.9006583875
20	39	38	2435.9548571991
20	40	39	2437.9600300988
20	41	40	2438.9495992195
20	42	41	2439.907262638
20	43	42	2440.9178933094
20	44	43	2441.927142262
20	45	44	2442.9368511226
20	46	45	2443.9466651459
20	47	46	2444.9575911418
20	48	47	2445.9693527038
20	49	48	2446.9799539676
20	50	49	2447.9898460564
20	51	50	2449.0001103546
20	52	51	2450.0088045419
20	53	52	2450.2643256367
20	54	53	2449.1496855983
20	55	54	2448.0353468135
20	56	55	2446.9235720329
20	57	56	2445.811877869
20	58	57	2444.700506703
20	59	58	2443.588790617
20	60	59	2442.4763089615
20	61	60	2441.3618977926
20	62	61	2440.2866459092
20	63	62	2439.346241292
20	64	63	2438.5899844988
20	65	64	2436.8961104775
20	66	65	2429.4983228361
20	67	66	2417.5064874004
20	68	67	2403.9323155491
20	69	68	2389.9969792552
20	70	69	2376.0629250986
20	71	70	2362.1324999015
20	72	71	2348.2196035675
20	73	72	2334.2898757878
20	74	73	2320.3710507947
20	76	74	2306.4408490564
20	77	75	2292.5221805866
20	78	76	2278.5906684087
20	79	77	2264.6704978563
20	80	78	2250.7415029905
20	81	79	2236.9346458594
20	82	80	2223.1440515444
20	83	81	2209.637544731
20	84	82	2196.4462333985
20	85	83	2183.7957673909
20	86	84	2174.1070490126
20	203	85	2167.3180400142
20	204	86	2162.7382415396
21	14	13	1578.4413889889
21	15	14	1579.5354087027
21	16	15	1581.5597135043
21	17	16	1586.6698793434
21	18	17	1593.0919447746
21	19	18	1600.9310288979
21	20	19	1609.5975358374
21	21	20	1618.287744307
21	22	21	1626.9839766491
21	23	22	1635.6581449062
21	24	23	1644.3510016454
21	25	24	1653.7440470643
21	26	25	1665.1168382391
21	27	26	1675.0671622232
21	28	27	1682.9278787784
21	29	28	1691.1013328275
21	30	29	1695.1535969917
21	31	30	1696.8411509823
21	32	31	1698.1231042761
21	33	32	1699.2701010192
21	34	33	1700.3394424198
21	35	34	1700.9750929764
21	36	35	1703.8618464489
21	37	36	1713.6432589432
21	38	37	1725.4909850676
21	39	38	1739.0086577553
21	40	39	1752.7828228604
21	41	40	1766.6724609258
21	42	41	1780.5686573638
21	43	42	1794.4668220142
21	44	43	1808.3459853046
21	45	44	1822.2314732382
21	46	45	1836.1184073668
21	47	46	1850.0206333101
21	48	47	1863.9343499336
21	49	48	1877.8321101721
21	50	49	1891.7201178549
21	51	50	1905.6132441489
21	52	51	1919.4847783232
21	53	52	1933.3785301205
21	54	53	1947.2906859526
21	55	54	1961.1990817506
21	56	55	1975.0754754432
21	57	56	1988.9508629376
21	58	57	2002.8222189955
21	59	58	2016.6978801042
21	60	59	2030.5830965145
21	61	60	2044.4923957605
21	62	61	2058.402248078
21	63	62	2072.296467945
21	64	63	2086.2020105636
21	65	64	2100.0006144699
21	66	65	2111.7010101415
21	67	66	2118.6551978877
21	68	67	2120.7890396183
21	69	68	2120.3183616959
21	70	69	2119.8477270789
21	71	70	2119.3772150325
21	72	71	2118.9072950389
21	73	72	2118.4368065493
21	74	73	2117.9666863102
21	76	74	2117.4961818112
21	77	75	2117.0260668593
21	78	76	2116.5555180991
21	79	77	2116.0853524134
21	80	78	2115.6148886774
21	81	79	2114.0244403584
21	82	80	2112.068827495
21	83	81	2108.891976811
21	84	82	2104.4180982057
21	85	83	2100.1276491527
21	86	84	2095.812883853
21	203	85	2091.8163014511
21	204	86	2089.1202464011
22	15	14	4.1202440707026
22	16	15	6.098204819389
22	17	16	7.9892263333931
22	18	17	9.9395148638858
22	19	18	11.888312638128
22	20	19	12.214899667107
22	21	20	12.204430835099
22	22	21	12.224366190907
22	23	22	12.210519580803
22	24	23	12.179415699571
22	25	24	12.159758925896
22	26	25	12.13959274378
22	27	26	12.143464836945
22	28	27	12.197705111212
22	29	28	12.182268543871
22	30	29	12.238849889069
22	31	30	12.235605009577
22	32	31	12.23004970376
22	33	32	12.179280876377
22	34	33	9.6876446669724
22	35	34	6.6438289998357
22	36	35	8.8492165823306
22	37	36	10.860397206489
22	38	37	12.910764177675
22	39	38	13.992245385351
22	40	39	13.943547738914
22	41	40	13.916770352069
22	42	41	13.945535122917
22	43	42	13.906703865982
22	44	43	13.929781103753
22	45	44	13.945612282939
22	46	45	13.915959525181
22	47	46	13.967522231955
22	48	47	13.972525620006
22	49	48	13.883536923684
22	50	49	13.909812615521
22	51	50	13.926507747294
22	52	51	13.897951097498
22	53	52	13.93396450304
22	54	53	13.967009024217
22	55	54	13.947614409933
22	56	55	13.993828555658
22	57	56	13.915365449623
22	58	57	13.876728287677
22	59	58	13.918426910553
22	60	59	13.957692671507
22	61	60	13.90009289247
22	62	61	13.990771026358
22	63	62	13.985077120962
22	64	63	13.962056111419
22	65	64	13.973261172024
22	66	65	13.976665152721
22	67	66	13.995758003502
22	68	67	13.879077432866
22	69	68	13.899420192223
22	70	69	13.964884717481
22	71	70	13.997399434138
22	72	71	13.963054893557
22	73	72	13.99507131309
22	74	73	13.959758597296
22	76	74	13.999156328384
22	77	75	13.969890658425
22	78	76	13.980162032277
22	79	77	13.896995161234
22	80	78	13.983461196581
22	81	79	13.873203118846
22	82	80	13.973196173133
22	83	81	13.974863053726
22	84	82	13.879482471305
22	85	83	12.290140953313
22	86	84	9.4076652111322
22	203	85	6.6479709535401
22	204	86	4.2764803615055
23	16	15	1.9779607486865
23	17	16	1.8910215140041
23	18	17	1.9502885304927
23	19	18	1.9487977742427
23	20	19	0.32658702897847
23	21	20	-0.010468832007609
23	22	21	0.019935355808121
23	23	22	-0.013846610104666
23	24	23	-0.031103881231974
23	25	24	-0.019656773675234
23	26	25	-0.020166182115208
23	27	26	0.0038720931648282
23	28	27	0.054240274266339
23	29	28	-0.015436567340512
23	30	29	0.056581345198211
23	31	30	-0.0032448794925592
23	32	31	-0.0055553058162339
23	33	32	-0.050768827383871
23	34	33	-2.4916362094042
23	35	34	-3.0438156671366
23	36	35	2.2053875824949
23	37	36	2.0111806241586
23	38	37	2.0503669711854
23	39	38	1.0814812076765
23	40	39	-0.048697646437214
23	41	40	-0.026777386844623
23	42	41	0.028764770848211
23	43	42	-0.038831256935373
23	44	43	0.023077237771357
23	45	44	0.015831179185771
23	46	45	-0.02965275775874
23	47	46	0.051562706774567
23	48	47	0.0050033880514082
23	49	48	-0.088988696322776
23	50	49	0.026275691837073
23	51	50	0.016695131773595
23	52	51	-0.028556649796665
23	53	52	0.036013405541889
23	54	53	0.033044521177652
23	55	54	-0.019394614284392
23	56	55	0.046214145724662
23	57	56	-0.078463106034324
23	58	57	-0.038637161946388
23	59	58	0.041698622875845
23	60	59	0.039265760954004
23	61	60	-0.057599779036828
23	62	61	0.090678133887705
23	63	62	-0.0056939053954554
23	64	63	-0.023021009543445
23	65	64	0.011205060605425
23	66	65	0.0034039806970405
23	67	66	0.019092850780579
23	68	67	-0.11668057063594
23	69	68	0.0203427593573
23	70	69	0.065464525257703
23	71	70	0.032514716656879
23	72	71	-0.034344540580641
23	73	72	0.032016419533175
23	74	73	-0.035312715794426
23	76	74	0.039397731088101
23	77	75	-0.029265669959132
23	78	76	0.010271373852158
23	79	77	-0.083166871042923
23	80	78	0.086466035346966
23	81	79	-0.11025807773462
23	82	80	0.099993054287042
23	83	81	0.0016668805922393
23	84	82	-0.095380582420621
23	85	83	-1.589341517992
23	86	84	-2.8824757421808
23	203	85	-2.7596942575921
23	204	86	-2.3714905920346
24	16	15	4.3320714987557
24	17	16	5.183486961616
24	18	17	6.3519610936481
24	19	18	7.4221751260776
24	20	19	2.8290120097271
24	21	20	1.8358789431413
24	22	21	1.9271875182689
24	23	22	1.8264688584841
24	24	23	1.7731360365127
24	25	24	1.805074126771
24	26	25	1.8018815093796
24	27	26	1.8725574894048
24	28	27	2.0255159107798
24	29	28	1.8193676659045
24	30	29	2.0366459836881
24	31	30	1.8598961138504
24	32	31	1.8525922369475
24	33	32	1.7154043192418
24	34	33	0.973
24	35	34	0.973
24	36	35	6.3042465263614
24	37	36	7.0162147605311
24	38	37	8.3113257001554
24	39	38	5.6849490315896
24	40	39	1.8694269918782
24	41	40	1.940528745875
24	42	41	2.1299480592744
24	43	42	1.8991694406835
24	44	43	2.1091372507868
24	45	44	2.0864880630902
24	46	45	1.9308080812489
24	47	46	2.2090898398184
24	48	47	2.0528811368149
24	49	48	1.7292056532406
24	50	49	2.1177127068995
24	51	50	2.0873649665686
24	52	51	1.9327741224938
24	53	52	2.1530281120875
24	54	53	2.1466978352857
24	55	54	1.9682931056067
24	56	55	2.1940726512002
24	57	56	1.7670612526642
24	58	57	1.8970499029483
24	59	58	2.1703787731
24	60	59	2.1665979175254
24	61	60	1.8356851411863
24	62	61	2.3436478038294
24	63	62	2.0181272789861
24	64	63	1.9574993776543
24	65	64	2.0738417857687
24	66	65	2.0479224526271
24	67	66	2.1028124220468
24	68	67	1.6362226447506
24	69	68	2.096714827559
24	70	69	2.2555743425322
24	71	70	2.1482652379368
24	72	71	1.9194912088098
24	73	72	2.1463276308042
24	74	73	1.9159241804067
24	76	74	2.1716810577018
24	77	75	1.9372331757794
24	78	76	2.0714211235731
24	79	77	1.7497841862042
24	80	78	2.3285442705306
24	81	79	1.6572642212753
24	82	80	2.3728321024286
24	83	81	2.0418860394079
24	84	82	1.7074999254715
24	85	83	0.973
24	86	84	0.973
24	203	85	0.973
24	204	86	0.973
25	17	16	2414.866372544
25	18	17	2411.9174920589
25	19	18	2407.1873548935
25	20	19	2402.1033929951
25	21	20	2395.6770685576
25	22	21	2387.9239549194
25	23	22	2378.7440047435
25	24	23	2368.9560721758
25	25	24	2359.1622850237
25	26	25	2349.3790714815
25	27	26	2340.0066479368
25	28	27	2334.2982135796
25	29	28	2338.9199148722
25	30	29	2349.5391707111
25	31	30	2359.6277409974
25	32	31	2372.2720176682
25	33	32	2385.1845950773
25	34	33	2397.5464889811
25	35	34	2407.0874095275
25	36	35	2415.9651438065
25	37	36	2423.6468382971
25	38	37	2430.569692316
25	39	38	2432.1309614525
25	40	39	2433.9421556705
25	41	40	2436.0122354535
25	42	41	2438.0027148192
25	43	42	2438.9731157059
25	44	43	2439.9357414143
25	45	44	2440.9458166434
25	46	45	2441.9557380938
25	47	46	2442.9663615734
25	48	47	2443.9771156043
25	49	48	2444.9876268776
25	50	49	2445.9974210534
25	51	50	2447.0080314889
25	52	51	2448.0195445062
25	53	52	2449.030052055
25	54	53	2450.0410207048
25	55	54	2450.2288519962
25	56	55	2449.1151891185
25	57	56	2448.0039409347
25	58	57	2446.8928401147
25	59	58	2445.7798170304
25	60	59	2444.6657750639
25	61	60	2443.5518927944
25	62	61	2442.4392427746
25	63	62	2441.3252988735
25	64	63	2440.2579520618
25	65	64	2439.3172156385
25	66	65	2438.5948207099
25	67	66	2436.8218629005
25	68	67	2429.2514369139
25	69	68	2417.1713261784
25	70	69	2403.5744165034
25	71	70	2389.6505314836
25	72	71	2375.7065014641
25	73	72	2361.7738953516
25	74	73	2347.8218643049
25	76	74	2333.8907725617
25	77	75	2319.9862987669
25	78	76	2306.0487085514
25	79	77	2292.1137497009
25	80	78	2278.1829358424
25	81	79	2264.2453535795
25	82	80	2250.3043129485
25	83	81	2236.4693975307
25	84	82	2222.6757219044
25	85	83	2209.1942698441
25	86	84	2196.5131875183
25	203	85	2185.9437322411
25	204	86	2177.5970274981
26	17	16	1578.4544820301
26	18	17	1579.5372955538
26	19	18	1581.5276954006
26	20	19	1586.6770484103
26	21	20	1593.1860297397
26	22	21	1601.0388657451
26	23	22	1610.3368905932
26	24	23	1620.2507178467
26	25	24	1630.1704749865
26	26	25	1640.0795225166
26	27	26	1650.3859643145
26	28	27	1662.6340421
26	29	28	1674.572302388
26	30	29	1683.5551363304
26	31	30	1692.6532617053
26	32	31	1695.6583691202
26	33	32	1697.3422472356
26	34	33	1698.5435737334
26	35	34	1699.4457314843
26	36	35	1700.2851805454
26	37	36	1700.9566766052
26	38	37	1703.8610356729
26	39	38	1713.8454793887
26	40	39	1725.76405829
26	41	40	1739.3862358453
26	42	41	1753.1711701192
26	43	42	1767.0712080905
26	44	43	1780.960296697
26	45	44	1794.85082292
26	46	45	1808.7392343832
26	47	46	1822.6373001309
26	48	47	1836.5371612161
26	49	48	1850.4336839067
26	50	49	1864.3203450916
26	51	50	1878.2182314573
26	52	51	1892.1285301028
26	53	52	1906.0250015734
26	54	53	1919.9278140916
26	55	54	1933.8212872399
26	56	55	1947.7212468395
26	57	56	1961.5910679214
26	58	57	1975.4590497119
26	59	58	1989.3510238556
26	60	59	2003.2557149744
26	61	60	2017.1584128682
26	62	61	2031.0457306849
26	63	62	2044.9491978213
26	64	63	2058.8261917895
26	65	64	2072.7253140016
26	66	65	2086.6147005763
26	67	66	2100.3941266276
26	68	67	2112.0046593091
26	69	68	2118.8050185973
26	70	69	2120.7769512711
26	71	70	2120.306660125
26	72	71	2119.8356885649
26	73	72	2119.3651028564
26	74	73	2118.8938610544
26	76	74	2118.423326496
26	77	75	2117.9536909806
26	78	76	2117.4829369299
26	79	77	2117.0122717563
26	80	78	2116.5417465828
26	81	79	2116.0709928004
26	82	80	2115.6001222096
26	83	81	2113.9584645499
26	84	82	2112.0024147322
26	85	83	2108.7416386092
26	86	84	2104.440805926
26	203	85	2100.8561388189
26	204	86	2097.8673790824
27	18	17	4.11254450365
27	19	18	6.0975231633921
27	20	19	8.1241239797909
27	21	20	10.018434339895
27	22	21	11.94044197294
27	23	22	13.966010854098
27	24	23	13.99429374554
27	25	24	13.992908905046
27	26	25	13.889738958394
27	27	26	13.996094578244
27	28	27	13.943261206169
27	29	28	13.961094655516
27	30	29	13.828451053
27	31	30	13.435815226612
27	32	31	13.161572458353
27	33	32	12.955391603935
27	34	33	11.268225475697
27	35	34	8.5051443401138
27	36	35	9.3430507586011
27	37	36	6.9081336921018
27	38	37	9.1321907297087
27	39	38	10.970896498198
27	40	39	12.982570952501
27	41	40	13.992697958478
27	42	41	13.936582251703
27	43	42	13.977668084782
27	44	43	13.986179260183
27	45	44	13.884867181559
27	46	45	13.927137885792
27	47	46	13.910710662541
27	48	47	13.909766360957
27	49	48	13.940070941378
27	50	49	13.877076953631
27	51	50	13.90827997843
27	52	51	13.954862964205
27	53	52	13.893197995736
27	54	53	13.963183217549
27	55	54	13.893721483571
27	56	55	13.88568516843
27	57	56	13.927406547926
27	58	57	13.918185825639
27	59	58	13.942741125419
27	60	59	13.888825567171
27	61	60	13.956811681101
27	62	61	13.967852384013
27	63	62	13.917130999181
27	64	63	13.908419855016
27	65	64	13.917908439364
27	66	65	13.898765254379
27	67	66	13.929094264333
27	68	67	13.988442988638
27	69	68	13.963501574658
27	70	69	13.904512311171
27	71	70	13.881385968712
27	72	71	13.955823229789
27	73	72	13.91319160128
27	74	73	13.978148939102
27	76	74	13.952216081487
27	77	75	13.876740762778
27	78	76	13.930089543043
27	79	77	13.916144249656
27	80	78	13.998410794288
27	81	79	13.980069159993
27	82	80	13.95930730181
27	83	81	13.968128457202
27	84	82	13.948675276458
27	85	83	13.962962557652
27	86	84	12.38619589941
27	203	85	10.177438578864
27	204	86	7.9623281749259
28	19	18	1.984978659742
28	20	19	2.0266008163989
28	21	20	1.8943103601038
28	22	21	1.9220076330448
28	23	22	2.0255688811579
28	24	23	0.028282891442068
28	25	24	-0.0013848404935555
28	26	25	-0.10316994665191
28	27	26	0.10635561984964
28	28	27	-0.05283337207511
28	29	28	0.017833449346945
28	30	29	-0.13264360251538
28	31	30	-0.39263582638861
28	32	31	-0.27424276825864
28	33	32	-0.20618085441804
28	34	33	-1.6871661282383
28	35	34	-2.7630811355829
28	36	35	0.83790641848734
28	37	36	-2.4349170664993
28	38	37	2.2240570376068
28	39	38	1.8387057684897
28	40	39	2.011674454303
28	41	40	1.0101270059768
28	42	41	-0.056115706774872
28	43	42	0.041085833078251
28	44	43	0.0085111754015088
28	45	44	-0.10131207862403
28	46	45	0.042270704233088
28	47	46	-0.016427223251666
28	48	47	-0.00094430158380554
28	49	48	0.030304580421653
28	50	49	-0.062993987747468
28	51	50	0.031203024799471
28	52	51	0.046582985774148
28	53	52	-0.061664968468248
28	54	53	0.069985221812967
28	55	54	-0.069461733978242
28	56	55	-0.0080363151407798
28	57	56	0.041721379496158
28	58	57	-0.009220722287429
28	59	58	0.024555299780332
28	60	59	-0.053915558247827
28	61	60	0.067986113929656
28	62	61	0.01104070291156
28	63	62	-0.050721384831705
28	64	63	-0.0087111441651349
28	65	64	0.0094885843480004
28	66	65	-0.01914318498457
28	67	66	0.030329009953421
28	68	67	0.059348724305165
28	69	68	-0.024941413979978
28	70	69	-0.058989263486584
28	71	70	-0.023126342459582
28	72	71	0.07443726107711
28	73	72	-0.042631628508678
28	74	73	0.064957337821832
28	76	74	-0.025932857615407
28	77	75	-0.075475318708923
28	78	76	0.053348780265079
28	79	77	-0.013945293386932
28	80	78	0.082266544632148
28	81	79	-0.018341634294485
28	82	80	-0.02076185818296
28	83	81	0.0088211553916349
28	84	82	-0.019453180744312
28	85	83	0.014287281194701
28	86	84	-1.5767666582426
28	203	85	-2.2087573205454
28	204	86	-2.2151104039386
29	19	18	4.3420194955082
29	20	19	5.5193514834883
29	21	20	6.2598837528783
29	22	21	7.3741311479677
29	23	22	8.8530434321966
29	24	23	2.13365012742
29	25	24	2.0334505025289
29	26	25	1.6822325806597
29	27	26	2.3971909293526
29	28	27	1.855503707612
29	29	28	2.0948662776171
29	30	29	1.5793119203646
29	31	30	0.973
29	32	31	0.973
29	33	32	1.2920943242185
29	34	33	0.973
29	35	34	0.973
29	36	35	3.5227441887176
29	37	36	0.973
29	38	37	6.5157259570649
29	39	38	6.6227313860438
29	40	39	8.23254663462
29	41	40	5.4444898698147
29	42	41	1.8438824401449
29	43	42	2.1749617238466
29	44	43	2.0661193061513
29	45	44	1.6880752085194
29	46	45	2.1732746516206
29	47	46	1.9746491499881
29	48	47	2.0264593789898
29	49	48	2.1345252785117
29	50	49	1.8156237109116
29	51	50	2.1340627994298
29	52	51	2.1908906066732
29	53	52	1.8214679161102
29	54	53	2.2705861872936
29	55	54	1.7954068062379
29	56	55	2.0002810933209
29	57	56	2.1714609797662
29	58	57	1.999553894506
29	59	58	2.1154986829051
29	60	59	1.8470270282863
29	61	60	2.2631030576132
29	62	61	2.0727204260443
29	63	62	1.8602543209442
29	64	63	2.0002886298611
29	65	64	2.062281292827
29	66	65	1.964382743041
29	67	66	2.133406923581
29	68	67	2.237740187174
29	69	68	1.9511766336835
29	70	69	1.8314175593046
29	71	70	1.9493699794006
29	72	71	2.2846833100323
29	73	72	1.8870266347629
29	74	73	2.2554324657204
29	76	74	1.9467570144346
29	77	75	1.7738534084078
29	78	76	2.2107965887972
29	79	77	1.9835051352325
29	80	78	2.3162204831367
29	81	79	1.9750085314323
29	82	80	1.9648337724802
29	83	81	2.0652777009624
29	84	82	1.968199643286
29	85	83	2.0831322075699
29	86	84	0.973
29	203	85	0.973
29	204	86	0.973
30	20	19	2414.8588002162
30	21	20	2411.8128147094
30	22	21	2407.1980394585
30	23	22	2402.4260893827
30	24	23	2396.4703598532
30	25	24	2389.2222769874
30	26	25	2380.6475561669
30	27	26	2371.4676481852
30	28	27	2362.2855005591
30	29	28	2353.1016212452
30	30	29	2343.9169744599
30	31	30	2335.7595052277
30	32	31	2334.0762982215
30	33	32	2342.9453472749
30	34	33	2352.76259233
30	35	34	2362.8956962236
30	36	35	2375.8172182324
30	37	36	2388.78688367
30	38	37	2401.77180531
30	39	38	2414.0995356394
30	40	39	2422.4112137227
30	41	40	2429.7482532499
30	42	41	2431.8187449237
30	43	42	2433.586401238
30	44	43	2435.6334269353
30	45	44	2437.7252028376
30	46	45	2438.8311471371
30	47	46	2439.7531043864
30	48	47	2440.76243059
30	49	48	2441.7733501189
30	50	49	2442.7835869561
30	51	50	2443.7948260139
30	52	51	2444.8052462114
30	53	52	2445.8169800343
30	54	53	2446.8271613391
30	55	54	2447.8370222849
30	56	55	2448.8480540466
30	57	56	2449.8584953059
30	58	57	2450.4290832727
30	59	58	2449.3166641626
30	60	59	2448.2022677673
30	61	60	2447.0881994952
30	62	61	2445.975126542
30	63	62	2444.8621464373
30	64	63	2443.7468582232
30	65	64	2442.6331334664
30	66	65	2441.5198089096
30	67	66	2440.4206098042
30	68	67	2439.48021689
30	69	68	2438.615223677
30	70	69	2437.2646480374
30	71	70	2430.7624445829
30	72	71	2419.3705019067
30	73	72	2405.949528266
30	74	73	2392.0166210895
30	76	74	2378.1047973867
30	77	75	2364.1759740571
30	78	76	2350.2423988947
30	79	77	2336.3108012374
30	80	78	2322.3839084835
30	81	79	2308.4493034976
30	82	80	2294.5072965559
30	83	81	2280.5868063405
30	84	82	2266.6453797651
30	85	83	2252.7328223018
30	86	84	2238.8918546218
30	203	85	2225.104168434
30	204	86	2211.5148856806
31	20	19	1578.4572625495
31	21	20	1579.5757325301
31	22	21	1581.5168734081
31	23	22	1586.3502014261
31	24	23	1592.3825349454
31	25	24	1599.723844354
31	26	25	1608.4088552454
31	27	26	1617.706837357
31	28	27	1627.0070879199
31	29	28	1636.3090924444
31	30	29	1645.6118743112
31	31	30	1655.8229680164
31	32	31	1668.6056630043
31	33	32	1677.823081133
31	34	33	1686.4620986842
31	35	34	1694.2569051897
31	36	35	1696.18826464
31	37	36	1697.7152945558
31	38	37	1698.9431056092
31	39	38	1700.1087748343
31	40	39	1700.8851259621
31	41	40	1702.3336147228
31	42	41	1711.7909358749
31	43	42	1723.4230132317
31	44	43	1736.8934831806
31	45	44	1750.6584322331
31	46	45	1764.5366218155
31	47	46	1778.4486774122
31	48	47	1792.3289030567
31	49	48	1806.2310400661
31	50	49	1820.1237887191
31	51	50	1834.0303198798
31	52	51	1847.9255900979
31	53	52	1861.8389252573
31	54	53	1875.7309102286
31	55	54	1889.6184896333
31	56	55	1903.5221700659
31	57	56	1917.4177299244
31	58	57	1931.3221407672
31	59	58	1945.2065765299
31	60	59	1959.1156913824
31	61	60	1973.0207108287
31	62	61	1986.9133074023
31	63	62	2000.804745107
31	64	63	2014.7249910161
31	65	64	2028.6257229457
31	66	65	2042.5214598598
31	67	66	2056.4229683327
31	68	67	2070.3170152921
31	69	68	2084.2193199703
31	70	69	2098.0473654019
31	71	70	2110.1462454442
31	72	71	2117.8219631426
31	73	72	2120.8571727062
31	74	73	2120.3865768285
31	76	74	2119.9166930644
31	77	75	2119.4462351231
31	78	76	2118.9756166842
31	79	77	2118.5050650379
31	80	78	2118.0346723031
31	81	79	2117.5640190812
31	82	80	2117.0931158522
31	83	81	2116.6229393687
31	84	82	2116.1520557413
31	85	83	2115.6821471937
31	86	84	2114.3019876881
31	203	85	2112.3467872199
31	204	86	2109.528683451
32	21	20	4.067372106413
32	22	21	5.8844240154271
32	23	22	7.537838140674
32	24	23	9.3614518548586
32	25	24	11.131813735405
32	26	25	13.05514560389
32	27	26	13.056851907321
32	28	27	13.088858415996
32	29	28	13.09768262688
32	30	29	13.007015683883
32	31	30	13.0850400788
32	32	31	13.080523499781
32	33	32	13.116974256075
32	34	33	13.130628270213
32	35	34	13.076873808132
32	36	35	13.089925677268
32	37	36	13.033893938239
32	38	37	13.01959743675
32	39	38	10.823751151863
32	40	39	6.3237511518625
32	41	40	8.6044372296547
32	42	41	10.730199524991
32	43	42	12.674376694845
32	44	43	13.986021694564
32	45	44	13.889535133126
32	46	45	13.959654321973
32	47	46	13.972242008243
32	48	47	13.884239303807
32	49	48	13.920426942427
32	50	49	13.887057281358
32	51	50	13.924890077722
32	52	51	13.888422596853
32	53	52	13.973124842362
32	54	53	13.979389482583
32	55	54	13.948198468271
32	56	55	13.944161438567
32	57	56	13.928642164022
32	58	57	13.919632288448
32	59	58	13.893341971666
32	60	59	13.941880325
32	61	60	13.998108282317
32	62	61	13.878701872779
32	63	62	13.982008344322
32	64	63	13.95228849458
32	65	64	13.945977008874
32	66	65	13.883390566299
32	67	66	13.971294902724
32	68	67	13.952113668735
32	69	68	13.943578180606
32	70	69	13.980317651937
32	71	70	13.967857702158
32	72	71	13.87017407299
32	73	72	13.907431576322
32	74	73	13.990516319459
32	76	74	13.891874899538
32	77	75	13.937335884271
32	78	76	13.921820710613
32	79	77	13.947281930207
32	80	78	13.958241502543
32	81	79	13.924777132559
32	82	80	13.993273811741
32	83	81	13.884921522941
32	84	82	13.906429463343
32	85	83	13.901499413527
32	86	84	13.898189382956
32	203	85	13.948864056782
32	204	86	13.940224047252
33	22	21	1.8170519090141
33	23	22	1.6534141252469
33	24	23	1.8236137141846
33	25	24	1.770361880546
33	26	25	1.9233318684858
33	27	26	0.0017063034302556
33	28	27	0.032006508675405
33	29	28	0.0088242108840486
33	30	29	-0.090666942996904
33	31	30	0.078024394917302
33	32	31	-0.0045165790198354
33	33	32	0.036450756294652
33	34	33	0.013654014137574
33	35	34	-0.053754462080542
33	36	35	0.013051869135817
33	37	36	-0.056031739029569
33	38	37	-0.014296501488424
33	39	38	-2.1958462848876
33	40	39	-4.5
33	41	40	2.2806860777922
33	42	41	2.1257622953365
33	43	42	1.9441771698534
33	44	43	1.3116449997197
33	45	44	-0.09648656143807
33	46	45	0.07011918884702
33	47	46	0.012587686269544
33	48	47	-0.088002704435493
33	49	48	0.036187638619449
33	50	49	-0.03336966106901
33	51	50	0.037832796364091
33	52	51	-0.036467480869032
33	53	52	0.084702245509252
33	54	53	0.0062646402209054
33	55	54	-0.031191014312208
33	56	55	-0.0040370297036123
33	57	56	-0.015519274545367
33	58	57	-0.0090098755736836
33	59	58	-0.026290316781962
33	60	59	0.048538353333717
33	61	60	0.056227957317605
33	62	61	-0.11940640953835
33	63	62	0.10330647154246
33	64	63	-0.029719849741086
33	65	64	-0.0063114857068296
33	66	65	-0.062586442574393
33	67	66	0.087904336424545
33	68	67	-0.019181233989075
33	69	68	-0.0085354881291284
33	70	69	0.03673947133124
33	71	70	-0.01245994977886
33	72	71	-0.097683629167731
33	73	72	0.03725750333164
33	74	73	0.083084743137006
33	76	74	-0.098641419920606
33	77	75	0.04546098473249
33	78	76	-0.015515173657331
33	79	77	0.025461219593417
33	80	78	0.010959572335704
33	81	79	-0.033464369983411
33	82	80	0.068496679181699
33	83	81	-0.10835228879936
33	84	82	0.02150794040179
33	85	83	-0.0049300498166129
33	86	84	-0.0033100305707183
33	203	85	0.050674673826434
33	204	86	-0.0086400095303549
34	22	21	3.9895326670072
34	23	22	4.516813990543
34	24	23	5.7516577127992
34	25	24	6.5238969694044
34	26	25	7.99669039818
34	27	26	1.9508625454287
34	28	27	2.0495150291555
34	29	28	1.9772521331911
34	30	29	1.6565307702809
34	31	30	2.1942373017963
34	32	31	1.9335175762632
34	33	32	2.066475094368
34	34	33	1.9957655815399
34	35	34	1.7779979770396
34	36	35	1.9898297500887
34	37	36	1.7672979147902
34	38	37	1.8970825701523
34	39	38	0.973
34	40	39	0.973
34	41	40	6.3133160572567
34	42	41	7.2389285551568
34	43	42	7.8480335715719
34	44	43	6.4584864032204
34	45	44	1.704588734769
34	46	45	2.2706165053704
34	47	46	2.0783904543616
34	48	47	1.7325612239294
34	49	48	2.152114369954
34	50	49	1.9156327972978
34	51	50	2.1581293389031
34	52	51	1.9053919146671
34	53	52	2.321330931143
34	54	53	2.0578412833151
34	55	54	1.9286962548706
34	56	55	2.0195663816392
34	57	56	1.9794538530861
34	58	57	2.0004054330977
34	59	58	1.93992520771
34	60	59	2.1959885866008
34	61	60	2.2283411417848
34	62	61	1.6270777435242
34	63	62	2.3851117990842
34	64	63	1.9340301948742
34	65	64	2.0121056433488
34	66	65	1.817533138576
34	67	66	2.3318879969052
34	68	67	1.9694492494068
34	69	68	2.0043907541876
34	70	69	2.1606152560182
34	71	70	1.9936118250746
34	72	71	1.6990698160563
34	73	72	2.1542627543164
34	74	73	2.3180133884777
34	76	74	1.6975579736318
34	77	75	2.185134912585
34	78	76	1.9787974726638
34	79	77	2.1190343839391
34	80	78	2.071439007203
34	81	79	1.9188526777571
34	82	80	2.2691547542171
34	83	81	1.6645209900012
34	84	82	2.101367837306
34	85	83	2.0122661472516
34	86	84	2.0173593662185
34	203	85	2.2039651867231
34	204	86	2.0037040175447
35	23	22	2414.8618358603
35	24	23	2411.8580234927
35	25	24	2407.0972548373
35	26	25	2401.9344958061
35	27	26	2395.4312230857
35	28	27	2388.0170109875
35	29	28	2380.6060603055
35	30	29	2373.2033337876
35	31	30	2365.7963568316
35	32	31	2358.3682105249
35	33	32	2350.9534404605
35	34	33	2343.5448953115
35	35	34	2336.9855603951
35	36	35	2334.0502360606
35	37	36	2337.4740960324
35	38	37	2345.6605594726
35	39	38	2353.4900798146
35	40	39	2361.3994502947
35	41	40	2371.829777738
35	42	41	2382.2791880094
35	43	42	2392.7914419929
35	44	43	2403.2877247381
35	45	44	2413.7992179208
35	46	45	2422.2304528549
35	47	46	2429.7020295225
35	48	47	2431.7900968341
35	49	48	2433.5381782391
35	50	49	2435.4426711141
35	51	50	2437.3448834803
35	52	51	2438.6171889046
35	53	52	2439.3882823385
35	54	53	2440.3085411931
35	55	54	2441.2279206589
35	56	55	2442.1462962299
35	57	56	2443.0679737894
35	58	57	2443.9877425263
35	59	58	2444.9077752149
35	60	59	2445.8294268444
35	61	60	2446.7491723121
35	62	61	2447.6683254853
35	63	62	2448.5880063025
35	64	63	2449.5062725205
35	65	64	2450.425700888
35	66	65	2449.9046584807
35	67	66	2448.892336726
35	68	67	2447.8778816381
35	69	68	2446.8666721816
35	70	69	2445.8549886876
35	71	70	2444.8399046477
35	72	71	2443.8270033527
35	73	72	2442.8150771892
35	74	73	2441.8015536889
35	76	74	2440.79026669
35	77	75	2439.8894348163
35	78	76	2439.0334185848
35	79	77	2438.5487165431
35	80	78	2435.3840841595
35	81	79	2426.6535663841
35	82	80	2414.1593082394
35	83	81	2400.3646848494
35	84	82	2386.4344557278
35	85	83	2372.5154540482
35	86	84	2358.5866747738
35	203	85	2344.6500336819
35	204	86	2330.7395657356
36	23	22	1578.4561478766
36	24	23	1579.559132101
36	25	24	1581.6189543447
36	26	25	1586.8481179941
36	27	26	1593.4350373344
36	28	27	1600.9446127675
36	29	28	1608.4508848358
36	30	29	1615.9488269594
36	31	30	1623.4510741904
36	32	31	1630.9747630581
36	33	32	1638.4849036345
36	34	33	1645.9887392288
36	35	34	1654.253426576
36	36	35	1664.1274589486
36	37	36	1673.4047167273
36	38	37	1680.0573075674
36	39	38	1687.1181651196
36	40	39	1694.0332636777
[...]
93	62	61	1.2073293687219
93	63	62	-0.7015545825413
93	64	63	-0.59656699830274
93	65	64	-0.46314899613202
93	66	65	-0.1913733423417
93	67	66	-0.24745478846843
93	68	67	-0.19718462345486
93	69	68	-0.14766819963837
93	70	69	-0.17719378885115
93	71	70	-0.019633785698561
93	72	71	-0.037257693534031
93	73	72	-0.13747690875959
93	74	73	0.11451025156112
93	76	74	-0.11238524297024
93	77	75	-0.051429523268968
93	78	76	-1.5535002241222
93	79	77	-0.011654935533924
93	80	78	-1.9673241697191
93	81	79	2.2792685258412
93	82	80	1.7839594006422
93	83	81	2.0029661996406
93	84	82	0.53100049681128
93	85	83	-0.34543554106108
93	86	84	-0.13974892497736
93	203	85	-0.11373739676485
93	204	86	-0.12235043504418
94	58	57	4.3807066726632
94	59	58	5.1991080184596
94	60	59	5.7420827504996
94	61	60	7.5386032280172
94	62	61	5.7038340681536
94	63	62	0.973
94	64	63	0.973
94	65	64	0.973
94	66	65	1.2562164016128
94	67	66	0.973
94	68	67	1.226181063665
94	69	68	1.3457633393573
94	70	69	1.2655066646806
94	71	70	1.6525039114162
94	72	71	1.6066054225412
94	73	72	1.3549509899294
94	74	73	1.9762667616655
94	76	74	1.4157363178153
94	77	75	1.5599093235437
94	78	76	0.973
94	79	77	1.5476947073283
94	80	78	0.973
94	81	79	6.3894031811753
94	82	80	6.2460091640368
94	83	81	7.9383681111683
94	84	82	3.6148985373374
94	85	83	0.973
94	86	84	1.4762083198005
94	203	85	1.5476747586476
94	204	86	1.514329336535
95	59	58	2414.8593783923
95	60	59	2411.9484889912
95	61	60	2407.4094249712
95	62	61	2402.6937210527
95	63	62	2396.641597031
95	64	63	2389.214746958
95	65	64	2380.4731529073
95	66	65	2371.3664398775
95	67	66	2362.2565296899
95	68	67	2353.1406513922
95	69	68	2344.0201873158
95	70	69	2335.9162889186
95	71	70	2334.0026215508
95	72	71	2341.8964640438
95	73	72	2350.7089878173
95	74	73	2359.0745827054
95	76	74	2369.2241882929
95	77	75	2379.8224714727
95	78	76	2390.052874574
95	79	77	2398.9127763144
95	80	78	2407.6904533723
95	81	79	2415.8207777276
95	82	80	2423.3777550816
95	83	81	2430.2822175799
95	84	82	2431.9141135069
95	85	83	2433.6302585265
95	86	84	2435.6223347961
95	203	85	2437.7154563254
95	204	86	2438.8137571065
96	59	58	1578.4570502462
96	60	59	1579.5259136427
96	61	60	1581.3027690053
96	62	61	1586.0791274142
96	63	62	1592.209095275
96	64	63	1599.7314712359
96	65	64	1608.5855017202
96	66	65	1617.8093474293
96	67	66	1627.0364314197
96	68	67	1636.2695602821
96	69	68	1645.5073339073
96	70	69	1655.6222604895
96	71	70	1668.1383424075
96	72	71	1676.9760448467
96	73	72	1684.6101066973
96	74	73	1692.1544097029
96	76	74	1695.2028148863
96	77	75	1696.7040348621
96	78	76	1697.8350024503
96	79	77	1698.6727653248
96	80	78	1699.5027533071
96	81	79	1700.2715297686
96	82	80	1700.9410949489
96	83	81	1703.0056230435
96	84	82	1712.4185096454
96	85	83	1723.711616491
96	86	84	1736.8204912646
96	203	85	1750.594295227
96	204	86	1764.223057827
97	60	59	3.8447639940612
97	61	60	5.6791266903889
97	62	61	7.640854550414
97	63	62	9.4405025505742
97	64	63	11.421963884828
97	65	64	13.012454428178
97	66	65	12.984555944548
97	67	66	12.996037343581
97	68	67	13.007021344934
97	69	68	12.961201979526
97	70	69	13.031341787711
97	71	70	12.558655270179
97	72	71	12.011429201822
97	73	72	11.406662650132
97	74	73	11.155540687501
97	76	74	10.913499009915
97	77	75	10.697260499871
97	78	76	9.547423207644
97	79	77	8.9678760146305
97	80	78	7.8922420065379
97	81	79	8.7546693671926
97	82	80	6.3056376796376
97	83	81	8.4825653085552
97	84	82	10.456606999305
97	85	83	12.205991717509
97	86	84	13.873096937549
97	203	85	13.95880981739
97	204	86	13.525965786318
98	61	60	1.8343626963277
98	62	61	1.9617278600251
98	63	62	1.7996480001602
98	64	63	1.9814613342541
98	65	64	1.5904905433498
98	66	65	-0.02789848363027
98	67	66	0.011481399033219
98	68	67	0.010984001352917
98	69	68	-0.045819365407805
98	70	69	0.070139808184468
98	71	70	-0.47268651753197
98	72	71	-0.54722606835658
98	73	72	-0.60476655169036
98	74	73	-0.25112196263095
98	76	74	-0.24204167758592
98	77	75	-0.21623851004382
98	78	76	-1.1498372922271
98	79	77	-0.57954719301356
98	80	78	-1.0756340080926
98	81	79	0.86242736065472
98	82	80	-2.449031687555
98	83	81	2.1769276289176
98	84	82	1.9740416907496
98	85	83	1.7493847182044
98	86	84	1.6671052200397
98	203	85	0.085712879841488
98	204	86	-0.43284403107202
99	61	60	3.911518067875
99	62	61	5.1322202484559
99	63	62	5.7376235105578
99	64	63	7.2530068360154
99	65	64	6.9290418337592
99	66	65	1.8513067873371
99	67	66	1.9756599604732
99	68	67	1.9751756017964
99	69	68	1.7932694070454
99	70	69	2.1633376069594
99	71	70	0.973
99	72	71	0.973
99	73	72	0.973
99	74	73	0.973
99	76	74	0.973
99	77	75	0.973
99	78	76	0.973
99	79	77	0.973
99	80	78	0.973
99	81	79	3.4139252129427
99	82	80	0.973
99	83	81	6.0258720677783
99	84	82	6.6947149875936
99	85	83	7.0128773856604
99	86	84	7.5997217878722
99	203	85	2.3229742071641
99	204	86	0.973
100	62	61	2414.8844513154
100	63	62	2411.952405891
100	64	63	2407.1483753425
100	65	64	2402.0327751596
100	66	65	2395.5605150873
100	67	66	2387.7034512246
100	68	67	2378.4408955037
100	69	68	2368.6464148381
100	70	69	2358.85036586
100	71	70	2349.0623008312
100	72	71	2339.7408343487
100	73	72	2334.2278371524
100	74	73	2339.2613398405
100	76	74	2349.4793962726
100	77	75	2358.8944286715
100	78	76	2370.0420611105
100	79	77	2380.5598797015
100	80	78	2390.6512030683
100	81	79	2399.8360432902
100	82	80	2408.5724612344
100	83	81	2416.656257931
100	84	82	2423.9717932529
100	85	83	2430.5616335737
100	86	84	2432.0719191255
100	203	85	2433.8209236133
100	204	86	2435.835446939
101	62	61	1578.4478435991
101	63	62	1579.5244753771
101	64	63	1581.5671763159
101	65	64	1586.7485745484
101	66	65	1593.304082348
101	67	66	1601.2622056101
101	68	67	1610.6438984955
101	69	68	1620.5643580696
101	70	69	1630.4864061279
101	71	70	1640.400367545
101	72	71	1650.7262470797
101	73	72	1663.0578762544
101	74	73	1674.8480235832
101	76	74	1683.5012302445
101	77	75	1691.9919422828
101	78	76	1695.3250610419
101	79	77	1696.791802898
101	80	78	1697.8915784042
101	81	79	1698.7600663826
101	82	80	1699.5861530406
101	83	81	1700.3505300013
101	84	82	1700.9754935959
101	85	83	1703.8370560007
101	86	84	1713.4569508564
101	203	85	1724.9662897103
101	204	86	1738.2228775276
102	63	62	4.018615917157
102	64	63	6.1678624366304
102	65	64	8.1947875515009
102	66	65	10.095725917275
102	67	66	12.087148355938
102	68	67	13.916756611222
102	69	68	13.873082711415
102	70	69	13.970749160051
102	71	70	13.922085633471
102	72	71	13.919626296114
102	73	72	13.89674285165
102	74	73	13.859240966135
102	76	74	13.009320540587
102	77	75	12.341020529206
102	78	76	11.39258892053
102	79	77	10.34088821589
102	80	78	9.4992764083581
102	81	79	9.3068073102467
102	82	80	7.5435747462808
102	83	81	8.5780964200195
102	84	82	6.6106557730338
102	85	83	8.7437057506395
102	86	84	10.629202504762
102	203	85	12.413122480296
102	204	86	13.954979228161
103	64	63	2.1492465194734
103	65	64	2.0269251148705
103	66	65	1.9009383657738
103	67	66	1.9914224386634
103	68	67	1.8296082552838
103	69	68	-0.043673899807034
103	70	69	0.097666448636446
103	71	70	-0.048663526580203
103	72	71	-0.0024593373574326
103	73	72	-0.022883444463368
103	74	73	-0.037501885515741
103	76	74	-0.84992042554721
103	77	75	-0.66830001138163
103	78	76	-0.94843160867563
103	79	77	-1.0517007046406
103	80	78	-0.84161180753145
103	81	79	-0.1924690981114
103	82	80	-1.7632325639659
103	83	81	1.0345216737386
103	84	82	-1.9674406469857
103	85	83	2.1330499776057
103	86	84	1.8854967541224
103	203	85	1.7839199755341
103	204	86	1.5418567478648
104	64	63	4.6239714702746
104	65	64	5.559217427776
104	66	65	6.3171910975532
104	67	66	7.6572369962964
104	68	67	8.1667304192483
104	69	68	1.8798735915629
104	70	69	2.3646891363214
104	71	70	1.867603388115
104	72	71	2.0223794668753
104	73	72	1.9516596977621
104	74	73	1.899228999223
104	76	74	0.973
104	77	75	0.973
104	78	76	0.973
104	79	77	0.973
104	80	78	0.973
104	81	79	0.973
104	82	80	0.973
104	83	81	3.7208063229356
104	84	82	0.973
104	85	83	6.0883830275485
104	86	84	6.5636490633973
104	203	85	7.2222087256798
104	204	86	7.2197337391798
105	65	64	2414.8420826617
105	66	65	2411.6921621242
105	67	66	2406.8077182934
105	68	67	2401.6811510426
105	69	68	2395.3062389906
105	70	69	2387.5620720242
105	71	70	2378.9877757882
105	72	71	2370.4018736532
105	73	72	2361.8166576423
105	74	73	2353.2261479631
105	76	74	2344.6320958694
105	77	75	2336.9086602319
105	78	76	2333.8928241752
105	79	77	2340.2183889988
105	80	78	2349.5208551378
105	81	79	2358.6060326288
105	82	80	2369.8626475015
105	83	81	2381.9535231512
105	84	82	2394.1080846568
105	85	83	2406.2894188575
105	86	84	2417.329714359
105	203	85	2424.5701100802
105	204	86	2430.7499611613
106	65	64	1578.4634011481
106	66	65	1579.6200355301
106	67	66	1581.9122149758
106	68	67	1587.1047213376
106	69	68	1593.5616290038
106	70	69	1601.4054032629
106	71	70	1610.0899841087
106	72	71	1618.7863201313
106	73	72	1627.4819612047
106	74	73	1636.1829640344
106	76	74	1644.887554843
106	77	75	1654.3518707538
106	78	76	1665.9483241867
106	79	77	1675.6208983324
106	80	78	1683.5386188878
106	81	79	1691.731859507
106	82	80	1695.2982443739
106	83	81	1696.9576775702
106	84	82	1698.2184496438
106	85	83	1699.3702761382
106	86	84	1700.4142098036
106	203	85	1701.0101400055
106	204	86	1704.7577952696
107	66	65	4.2842987557744
107	67	66	6.3335589328256
107	68	67	8.0892261283855
107	69	68	9.909994260104
107	70	69	11.839966300701
107	71	70	12.266388253015
107	72	71	12.295008240868
107	73	72	12.237824487669
107	74	73	12.208680238211
107	76	74	12.28308809936
107	77	75	12.270748666492
107	78	76	12.17708783941
107	79	77	12.249828311798
107	80	78	12.189631068459
107	81	79	12.216143022491
107	82	80	12.244153732752
107	83	81	12.273913706852
107	84	82	12.241147266025
107	85	83	12.280638671952
107	86	84	9.275129625501
107	203	85	6.9574655932414
107	204	86	9.1925074494367
108	67	66	2.0492601770512
108	68	67	1.7556671955599
108	69	68	1.8207681317185
108	70	69	1.9299720405973
108	71	70	0.42642195231337
108	72	71	0.028619987852872
108	73	72	-0.057183753198478
108	74	73	-0.029144249458332
108	76	74	0.074407861148938
108	77	75	-0.012339432868174
108	78	76	-0.093660827081186
108	79	77	0.072740472387522
108	80	78	-0.060197243338916
108	81	79	0.026511954031884
108	82	80	0.028010710261297
108	83	81	0.029759974100161
108	84	82	-0.0327664408274
108	85	83	0.039491405927111
108	86	84	-3.0055090464511
108	203	85	-2.3176640322596
108	204	86	2.2350418561953
109	67	66	4.5669665819023
109	68	67	4.9718018898546
109	69	68	6.0265212158169
109	70	69	7.3415326447534
109	71	70	3.132818344402
109	72	71	1.9596105970152
109	73	72	1.7010107818127
109	74	73	1.7813001550884
109	76	74	2.0939968251207
109	77	75	1.8361313962232
109	78	76	1.5893610070346
109	79	77	2.0854865471376
109	80	78	1.6885049551845
109	81	79	1.945773100362
109	82	80	1.9528870318387
109	83	81	1.9609373746863
109	84	82	1.7732971463714
109	85	83	1.9903924186942
109	86	84	0.973
109	203	85	0.973
109	204	86	6.5767042541697
110	68	67	2414.8461773879
110	69	68	2411.8156173957
110	70	69	2407.0654892415
110	71	70	2401.9492347768
110	72	71	2395.3429720888
110	73	72	2387.2616390446
110	74	73	2377.88964008
110	76	74	2368.1325874045
110	77	75	2358.3525015216
110	78	76	2348.5859072448
110	79	77	2339.3558393085
110	80	78	2334.134043377
110	81	79	2339.6724281097
110	82	80	2350.2401507909
110	83	81	2360.3479415334
110	84	82	2373.2651929288
110	85	83	2386.2097272031
110	86	84	2398.4287969272
110	203	85	2407.8041012615
110	204	86	2416.854075239
111	68	67	1578.4618975855
111	69	68	1579.5747033991
111	70	69	1581.6511285175
111	71	70	1586.8331894474
111	72	71	1593.5244234363
111	73	72	1601.709700482
111	74	73	1611.2022442957
111	76	74	1621.084794472
111	77	75	1630.9906741139
111	78	76	1640.8828886179
111	79	77	1651.2191006523
111	80	78	1663.6227387674
111	81	79	1675.1800020821
111	82	80	1684.1872977242
111	83	81	1693.302756588
111	84	82	1695.8068174552
111	85	83	1697.4642608361
111	86	84	1698.6270018416
111	203	85	1699.5134994742
111	204	86	1700.3692349484
112	69	68	4.1832233416825
112	70	69	6.094705743054
112	71	70	8.2377684972995
112	72	71	10.383634851228
112	73	72	12.377837524719
112	74	73	13.955367659324
112	76	74	13.851809419178
112	77	75	13.908478237184
112	78	76	13.850458060492
112	79	77	13.868616895749
112	80	78	13.842790459395
112	81	79	13.880602546102
112	82	80	13.822803649945
112	83	81	13.423834569094
112	84	82	13.2255948921
112	85	83	12.935006539924
112	86	84	11.002957302336
112	203	85	8.6809024781116
112	204	86	9.5557358198608
113	70	69	1.9114824013715
113	71	70	2.1430627542455
113	72	71	2.1458663539286
113	73	72	1.9942026734911
113	74	73	1.5775301346051
113	76	74	-0.10355824014638
113	77	75	0.056668818006292
113	78	76	-0.058020176691935
113	79	77	0.018158835256473
113	80	78	-0.025826436353382
113	81	79	0.03781208670698
113	82	80	-0.057798896156941
113	83	81	-0.39896908085125
113	84	82	-0.19823967699439
113	85	83	-0.29058835217566
113	86	84	-1.9320492375883
113	203	85	-2.3220548242241
113	204	86	0.87483334174922
114	70	69	4.2325536946742
114	71	70	5.8136589782112
114	72	71	7.0842665770013
114	73	72	7.8311198804753
114	74	73	7.3398960673193
114	76	74	1.6780272748096
114	77	75	2.2194443767814
114	78	76	1.8299282126159
114	79	77	2.0861328603344
114	80	78	1.9366600631344
114	81	79	2.1531474890114
114	82	80	1.8282507015857
114	83	81	0.973
114	84	82	1.3298466210965
114	85	83	0.973
114	86	84	0.973
114	203	85	0.973
114	204	86	3.666256262278
115	71	70	2414.8737180224
115	72	71	2411.8680781076
115	73	72	2407.1568522488
115	74	73	2402.2695560248
115	76	74	2396.026197728
115	77	75	2388.8153576297
115	78	76	2381.5497398835
115	79	77	2374.291180737
115	80	78	2367.0039128755
115	81	79	2359.7488205928
115	82	80	2352.5072288559
115	83	81	2345.2415486345
115	84	82	2338.5925230284
115	85	83	2334.5092807864
115	86	84	2335.3122361525
115	203	85	2343.1805012265
115	204	86	2350.9571301374
116	71	70	1578.4517848091
116	72	71	1579.555440099
116	73	72	1581.5585903777
116	74	73	1586.5087481523
116	76	74	1592.8324099882
116	77	75	1600.1359976036
116	78	76	1607.4950674297
116	79	77	1614.8469878668
116	80	78	1622.2279862771
116	81	79	1629.5763952592
116	82	80	1636.9111300483
116	83	81	1644.2702631531
116	84	82	1652.1962642949
116	85	83	1661.3629134735
116	86	84	1671.3416389339
116	203	85	1678.01298209
116	204	86	1684.8338876572
117	72	71	4.0859593419879
117	73	72	6.0045190997058
117	74	73	7.8119547564685
117	76	74	9.7132447450151
117	77	75	10.306547474335
117	78	76	10.360832532353
117	79	77	10.363603135818
117	80	78	10.313474926586
117	81	79	10.376109655705
117	82	80	10.30018560312
117	83	81	10.313361662883
117	84	82	10.402773770734
117	85	83	10.375479047629
117	86	84	10.333632165571
117	203	85	10.293141099976
117	204	86	10.402920537947
118	73	72	1.9185597577179
118	74	73	1.8074356567627
118	76	74	1.9012899885466
118	77	75	0.59330272932006
118	78	76	0.054285058018287
118	79	77	0.0027706034644499
118	80	78	-0.050128209232353
118	81	79	0.062634729119019
118	82	80	-0.075924052584451
118	83	81	0.013176059762481
118	84	82	0.089412107851823
118	85	83	-0.027294723105152
118	86	84	-0.041846882058307
118	203	85	-0.040491065594834
118	204	86	0.1097794379713
119	73	72	4.1959838790125
119	74	73	4.9337141016577
119	76	74	6.1139389675705
119	77	75	3.1820169359277
119	78	76	1.8480982583787
119	79	77	1.7196866436285
119	80	78	1.5842675844555
119	81	79	1.8703697956326
119	82	80	1.5193616351551
119	83	81	1.7416041869936
119	84	82	1.9399889266157
119	85	83	1.6454433049341
119	86	84	1.6062156789783
119	203	85	1.6068404552844
119	204	86	1.991066582773
120	74	73	2414.8769514603
120	76	74	2411.9119199329
120	77	75	2407.298265514
120	78	76	2402.4443862444
120	79	77	2396.2601480235
120	80	78	2388.6069567787
120	81	79	2379.6170040383
120	82	80	2370.499460411
120	83	81	2361.4828216058
120	84	82	2352.873273526
120	85	83	2344.582346547
120	86	84	2337.342957984
120	203	85	2334.045741496
120	204	86	2337.791286603
121	74	73	1578.4505975069
121	76	74	1579.5393416099
121	77	75	1581.4153582221
121	78	76	1586.3316692254
121	79	77	1592.5954505689
121	80	78	1600.3470789557
121	81	79	1609.4526625769
121	82	80	1618.6874781894
121	83	81	1627.8200911181
121	84	82	1636.5403772257
121	85	83	1644.9379440527
121	86	84	1653.7959020361
121	203	85	1664.154526961
121	204	86	1673.6608671881
122	76	74	4.0735588402093
122	77	75	5.8290612863471
122	78	76	7.862662603839
122	79	77	9.6879727271526
122	80	78	11.944467225839
122	81	79	12.952969819309
122	82	80	12.998291028097
122	83	81	12.606718959475
122	84	82	12.01544881161
122	85	83	11.585909929962
122	86	84	11.314088727391
122	203	85	11.066784244638
122	204	86	10.868912116196
123	77	75	1.7555024461378
123	78	76	2.0336013174918
123	79	77	1.8253101233137
123	80	78	2.2564944986859
123	81	79	1.0085025934703
123	82	80	0.045321208788081
123	83	81	-0.39157206862161
123	84	82	-0.59127014786565
123	85	83	-0.42953888164786
123	86	84	-0.27182120257115
123	203	85	-0.24730448275276
123	204	86	-0.1978721284417
124	77	75	3.8756268936732
124	78	76	5.3876730590065
124	79	77	5.9230829630863
124	80	78	8.3392083846763
124	81	79	5.0838208937897
124	82	80	2.0818866085506
124	83	81	0.973
124	84	82	0.973
124	85	83	0.973
124	86	84	0.973
124	203	85	0.973
124	204	86	1.2346211467126
125	78	76	2414.8732395561
125	79	77	2411.9082769358
125	80	78	2407.1655617389
125	81	79	2402.128447905
125	82	80	2395.6944575682
125	83	81	2387.9337748789
125	84	82	2378.7673655167
125	85	83	2368.9823548129
125	86	84	2359.2007163677
125	203	85	2349.4291188199
125	204	86	2340.0755591472
126	78	76	1578.4519604994
126	79	77	1579.5406792993
126	80	78	1581.5497688642
126	81	79	1586.6516712382
126	82	80	1593.1684170682
126	83	81	1601.0289194789
126	84	82	1610.3132293485
126	85	83	1620.224097156
126	86	84	1630.1315493295
126	203	85	1640.0288314577
126	204	86	1650.2977472404
127	79	77	4.0635240824116
127	80	78	6.1144633837571
127	81	79	8.1038544815257
127	82	80	10.046968652414
127	83	81	11.926067483762
127	84	82	13.892129573808
127	85	83	13.936045407304
127	86	84	13.987120267581
127	203	85	13.918644116903
127	204	86	13.841826980261
128	80	78	2.0509393013455
128	81	79	1.9893910977687
128	82	80	1.9431141708884
128	83	81	1.8790988313477
128	84	82	1.9660620900462
128	85	83	0.043915833495557
128	86	84	0.051074860277586
128	203	85	-0.068476150678471
128	204	86	-0.076817136641601
129	80	78	4.4483142439603
129	81	79	5.4354323508198
129	82	80	6.3932525708783
129	83	81	7.2428843983977
129	84	82	8.6102118406059
129	85	83	2.1797995320176
129	86	84	2.2096954019075
129	203	85	1.8008335806307
129	204	86	1.7664695463866
130	81	79	2414.8461739381
130	82	80	2411.9468780267
130	83	81	2407.2557718946
130	84	82	2402.3132644872
130	85	83	2396.0984851476
130	86	84	2388.6743410082
130	203	85	2379.9892216683
130	204	86	2370.5236087899
131	81	79	1578.4618988531
131	82	80	1579.5265051797
131	83	81	1581.4583984045
131	84	82	1586.4644775018
131	85	83	1592.7591927908
131	86	84	1600.2788280137
131	203	85	1609.0756573966
131	204	86	1618.6630192082
132	82	80	4.0267229073465
132	83	81	5.9477333564631
132	84	82	7.8212407105433
132	85	83	9.6026732088782
132	86	84	11.320051441229
132	203	85	13.138033295601
132	204	86	13.527684695305
133	83	81	1.9210104491166
133	84	82	1.8735073540802
133	85	83	1.7814324983349
133	86	84	1.717378232351
133	203	85	1.8179818543722
133	204	86	0.38965139970367
134	83	81	4.1699391246736
134	84	82	5.0629039791787
134	85	83	5.7777020757503
134	86	84	6.4753185162834
134	203	85	7.7094831312155
134	204	86	3.2615939564653
135	84	82	2414.8840517174
135	85	83	2412.0108083608
135	86	84	2407.4489481152
135	203	85	2402.6625869117
135	204	86	2396.5096841692
136	84	82	1578.4479903299
136	85	83	1579.5030302955
136	86	84	1581.2627375061
136	203	85	1586.1106620105
136	204	86	1592.3427048307
137	85	83	3.8169569386458
137	86	84	5.7666392897474
137	203	85	7.5873002581843
137	204	86	9.7025965610738
138	86	84	1.9496823511017
138	203	85	1.8206609684369
138	204	86	2.1152963028895
139	86	84	4.1154883535467
139	203	85	4.845510771239
139	204	86	6.6086845519608
140	203	85	2414.8924359679
140	204	86	2412.1004248629
141	203	85	1578.4449116765
141	204	86	1579.4701235835
142	204	86	3.7923626679825

